<?xml version="1.0" encoding="UTF-8"?>

<routes xmlns:xsi="http://www.w3.org/2001/XMLSchema-instance" xsi:noNamespaceSchemaLocation="http://sumo.dlr.de/xsd/routes_file.xsd">

	<!-- Define Vehicle Types -->
	<vType id="vNormalCar" vClass="passenger" color="yellow" length="5.0" minGap="2.5" accel="2.6" decel="4.5" maxSpeed="55.55" speedFactor="0.8" speedDev="0.2" sigma="0.4" />
    <vType id="vFastCar" vClass="passenger" color="red" length="5.0" minGap="2.5" accel="3.5" decel="6.0" maxSpeed="66.66" speedFactor="1.0" speedDev="0.2" sigma="0.4" />
    <vType id="vBus" vClass="coach" color="blue" length="12.0" minGap="5.0" accel="2.0" decel="3.5" maxSpeed="40" speedFactor="0.7" speedDev="0.1" sigma="0.2" />
    <vType id="vTruck" vClass="trailer" color="green"  length="10.0" minGap="5.0" accel="1.7" decel="3.0" maxSpeed="30" speedFactor="0.6" speedDev="0.1" sigma="0.2" />
	
	<!-- Define Vehicle Flows
			Poisson generated vehicles such that lambda changes in every hour with respect to the desired traffic demand
			Total volume will be %40 NormalCar, %30 FastCar, %10 Bus, %20 Truck -->	
			
	<!-- Day #0 23:30-24:00 (Preperation) -->
	<flow id="TPrev_NormalCar" type="vNormalCar" begin="0" end="299" from="E0" to="E6" departLane="best" departPos="last" departSpeed="max" probability="0.1332" />
	<flow id="TPrev_FastCar" type="vFastCar" begin="0" end="299" from="E0" to="E6" departLane="best" departPos="last" departSpeed="max" probability="0.0999" />
	<flow id="TPrev_Bus" type="vBus" begin="0" end="299" from="E0" to="E6" departLane="1" departPos="last" departSpeed="max" probability="0.0333" />
	<flow id="TPrev_Truck" type="vTruck" begin="0" end="299" from="E0" to="E6" departLane="0" departPos="last" departSpeed="max" probability="0.0666" />
	<flow id="TPrev_R_NormalCar" type="vNormalCar" begin="0" end="299" from="-E6" to="-E0" departLane="best" departPos="last" departSpeed="max" probability="0.1332" />
	<flow id="TPrev_R_FastCar" type="vFastCar" begin="0" end="299" from="-E6" to="-E0" departLane="best" departPos="last" departSpeed="max" probability="0.0999" />
	<flow id="TPrev_R_Bus" type="vBus" begin="0" end="299" from="-E6" to="-E0" departLane="1" departPos="last" departSpeed="max" probability="0.0333" />
	<flow id="TPrev_R_Truck" type="vTruck" begin="0" end="299" from="-E6" to="-E0" departLane="0" departPos="last" departSpeed="max" probability="0.0666" />
		
	<!-- Day #1 00:00-01:00  -->
	<flow id="T0_NormalCar" type="vNormalCar" begin="300" end="899" from="E0" to="E6" departLane="best" departPos="last" departSpeed="max" probability="0.0996" />
	<flow id="T0_FastCar" type="vFastCar" begin="300" end="899" from="E0" to="E6" departLane="best" departPos="last" departSpeed="max" probability="0.0747" />
	<flow id="T0_Bus" type="vBus" begin="300" end="899" from="E0" to="E6" departLane="1" departPos="last" departSpeed="max" probability="0.0249" />
	<flow id="T0_Truck" type="vTruck" begin="300" end="899" from="E0" to="E6" departLane="0" departPos="last" departSpeed="max" probability="0.0498" />
	<flow id="T0_R_NormalCar" type="vNormalCar" begin="300" end="899" from="-E6" to="-E0" departLane="best" departPos="last" departSpeed="max" probability="0.0996" />
	<flow id="T0_R_FastCar" type="vFastCar" begin="300" end="899" from="-E6" to="-E0" departLane="best" departPos="last" departSpeed="max" probability="0.0747" />
	<flow id="T0_R_Bus" type="vBus" begin="300" end="899" from="-E6" to="-E0" departLane="1" departPos="last" departSpeed="max" probability="0.0249" />
	<flow id="T0_R_Truck" type="vTruck" begin="300" end="899" from="-E6" to="-E0" departLane="0" departPos="last" departSpeed="max" probability="0.0498" />
		
	<!-- Day #1 01:00-02:00  -->
	<flow id="T1_NormalCar" type="vNormalCar" begin="900" end="1499" from="E0" to="E6" departLane="best" departPos="last" departSpeed="max" probability="0.0672" />
	<flow id="T1_FastCar" type="vFastCar" begin="900" end="1499" from="E0" to="E6" departLane="best" departPos="last" departSpeed="max" probability="0.0504" />
	<flow id="T1_Bus" type="vBus" begin="900" end="1499" from="E0" to="E6" departLane="1" departPos="last" departSpeed="max" probability="0.0168" />
	<flow id="T1_Truck" type="vTruck" begin="900" end="1499" from="E0" to="E6" departLane="0" departPos="last" departSpeed="max" probability="0.0336" />
	<flow id="T1_R_NormalCar" type="vNormalCar" begin="900" end="1499" from="-E6" to="-E0" departLane="best" departPos="last" departSpeed="max" probability="0.0672" />
	<flow id="T1_R_FastCar" type="vFastCar" begin="900" end="1499" from="-E6" to="-E0" departLane="best" departPos="last" departSpeed="max" probability="0.0504" />
	<flow id="T1_R_Bus" type="vBus" begin="900" end="1499" from="-E6" to="-E0" departLane="1" departPos="last" departSpeed="max" probability="0.0168" />
	<flow id="T1_R_Truck" type="vTruck" begin="900" end="1499" from="-E6" to="-E0" departLane="0" departPos="last" departSpeed="max" probability="0.0336" />
	
	<!-- Day #1 02:00-03:00 -->
	<flow id="T2_NormalCar" type="vNormalCar" begin="1500" end="2099" from="E0" to="E6" departLane="best" departPos="last" departSpeed="max" probability="0.0264" />
	<flow id="T2_FastCar" type="vFastCar" begin="1500" end="2099" from="E0" to="E6" departLane="best" departPos="last" departSpeed="max" probability="0.0198" />
	<flow id="T2_Bus" type="vBus" begin="1500" end="2099" from="E0" to="E6" departLane="1" departPos="last" departSpeed="max" probability="0.0066" />
	<flow id="T2_Truck" type="vTruck" begin="1500" end="2099" from="E0" to="E6" departLane="0" departPos="last" departSpeed="max" probability="0.0132" />
	<flow id="T2_R_NormalCar" type="vNormalCar" begin="1500" end="2099" from="-E6" to="-E0" departLane="best" departPos="last" departSpeed="max" probability="0.0264" />
	<flow id="T2_R_FastCar" type="vFastCar" begin="1500" end="2099" from="-E6" to="-E0" departLane="best" departPos="last" departSpeed="max" probability="0.0198" />
	<flow id="T2_R_Bus" type="vBus" begin="1500" end="2099" from="-E6" to="-E0" departLane="1" departPos="last" departSpeed="max" probability="0.0066" />
	<flow id="T2_R_Truck" type="vTruck" begin="1500" end="2099" from="-E6" to="-E0" departLane="0" departPos="last" departSpeed="max" probability="0.0132" />
	
	<!-- Day #1 03:00-04:00 -->
	<flow id="T3_NormalCar" type="vNormalCar" begin="2100" end="2699" from="E0" to="E6" departLane="best" departPos="last" departSpeed="max" probability="0.0336" />
	<flow id="T3_FastCar" type="vFastCar" begin="2100" end="2699" from="E0" to="E6" departLane="best" departPos="last" departSpeed="max" probability="0.0252" />
	<flow id="T3_Bus" type="vBus" begin="2100" end="2699" from="E0" to="E6" departLane="1" departPos="last" departSpeed="max" probability="0.0084" />
	<flow id="T3_Truck" type="vTruck" begin="2100" end="2699" from="E0" to="E6" departLane="0" departPos="last" departSpeed="max" probability="0.0168" />
	<flow id="T3_R_NormalCar" type="vNormalCar" begin="2100" end="2699" from="-E6" to="-E0" departLane="best" departPos="last" departSpeed="max" probability="0.0336" />
	<flow id="T3_R_FastCar" type="vFastCar" begin="2100" end="2699" from="-E6" to="-E0" departLane="best" departPos="last" departSpeed="max" probability="0.0252" />
	<flow id="T3_R_Bus" type="vBus" begin="2100" end="2699" from="-E6" to="-E0" departLane="1" departPos="last" departSpeed="max" probability="0.0084" />
	<flow id="T3_R_Truck" type="vTruck" begin="2100" end="2699" from="-E6" to="-E0" departLane="0" departPos="last" departSpeed="max" probability="0.0168" />
	
	<!-- Day #1 04:00-05:00 -->
	<flow id="T4_NormalCar" type="vNormalCar" begin="2700" end="3299" from="E0" to="E6" departLane="best" departPos="last" departSpeed="max" probability="0.0396" />
	<flow id="T4_FastCar" type="vFastCar" begin="2700" end="3299" from="E0" to="E6" departLane="best" departPos="last" departSpeed="max" probability="0.0297" />
	<flow id="T4_Bus" type="vBus" begin="2700" end="3299" from="E0" to="E6" departLane="1" departPos="last" departSpeed="max" probability="0.0099" />
	<flow id="T4_Truck" type="vTruck" begin="2700" end="3299" from="E0" to="E6" departLane="0" departPos="last" departSpeed="max" probability="0.0198" />
	<flow id="T4_R_NormalCar" type="vNormalCar" begin="2700" end="3299" from="-E6" to="-E0" departLane="best" departPos="last" departSpeed="max" probability="0.0396" />
	<flow id="T4_R_FastCar" type="vFastCar" begin="2700" end="3299" from="-E6" to="-E0" departLane="best" departPos="last" departSpeed="max" probability="0.0297" />
	<flow id="T4_R_Bus" type="vBus" begin="2700" end="3299" from="-E6" to="-E0" departLane="1" departPos="last" departSpeed="max" probability="0.0099" />
	<flow id="T4_R_Truck" type="vTruck" begin="2700" end="3299" from="-E6" to="-E0" departLane="0" departPos="last" departSpeed="max" probability="0.0198" />
	
	<!-- Day #1 05:00-06:00 -->
	<flow id="T5_NormalCar" type="vNormalCar" begin="3300" end="3899" from="E0" to="E6" departLane="best" departPos="last" departSpeed="max" probability="0.0936" />
	<flow id="T5_FastCar" type="vFastCar" begin="3300" end="3899" from="E0" to="E6" departLane="best" departPos="last" departSpeed="max" probability="0.0702" />
	<flow id="T5_Bus" type="vBus" begin="3300" end="3899" from="E0" to="E6" departLane="1" departPos="last" departSpeed="max" probability="0.0234" />
	<flow id="T5_Truck" type="vTruck" begin="3300" end="3899" from="E0" to="E6" departLane="0" departPos="last" departSpeed="max" probability="0.0468" />
	<flow id="T5_R_NormalCar" type="vNormalCar" begin="3300" end="3899" from="-E6" to="-E0" departLane="best" departPos="last" departSpeed="max" probability="0.0936" />
	<flow id="T5_R_FastCar" type="vFastCar" begin="3300" end="3899" from="-E6" to="-E0" departLane="best" departPos="last" departSpeed="max" probability="0.0702" />
	<flow id="T5_R_Bus" type="vBus" begin="3300" end="3899" from="-E6" to="-E0" departLane="1" departPos="last" departSpeed="max" probability="0.0234" />
	<flow id="T5_R_Truck" type="vTruck" begin="3300" end="3899" from="-E6" to="-E0" departLane="0" departPos="last" departSpeed="max" probability="0.0468" />
	
	<!-- Day #1 06:00-07:00 -->
	<flow id="T6_NormalCar" type="vNormalCar" begin="3900" end="4499" from="E0" to="E6" departLane="best" departPos="last" departSpeed="max" probability="0.2004" />
	<flow id="T6_FastCar" type="vFastCar" begin="3900" end="4499" from="E0" to="E6" departLane="best" departPos="last" departSpeed="max" probability="0.1503" />
	<flow id="T6_Bus" type="vBus" begin="3900" end="4499" from="E0" to="E6" departLane="1" departPos="last" departSpeed="max" probability="0.0501" />
	<flow id="T6_Truck" type="vTruck" begin="3900" end="4499" from="E0" to="E6" departLane="0" departPos="last" departSpeed="max" probability="0.1002" />
	<flow id="T6_R_NormalCar" type="vNormalCar" begin="3900" end="4499" from="-E6" to="-E0" departLane="best" departPos="last" departSpeed="max" probability="0.2004" />
	<flow id="T6_R_FastCar" type="vFastCar" begin="3900" end="4499" from="-E6" to="-E0" departLane="best" departPos="last" departSpeed="max" probability="0.1503" />
	<flow id="T6_R_Bus" type="vBus" begin="3900" end="4499" from="-E6" to="-E0" departLane="1" departPos="last" departSpeed="max" probability="0.0501" />
	<flow id="T6_R_Truck" type="vTruck" begin="3900" end="4499" from="-E6" to="-E0" departLane="0" departPos="last" departSpeed="max" probability="0.1002" />
	
	<!-- Day #1 07:00-08:00 -->
	<flow id="T7_NormalCar" type="vNormalCar" begin="4500" end="5099" from="E0" to="E6" departLane="best" departPos="last" departSpeed="max" probability="0.4332" />
	<flow id="T7_FastCar" type="vFastCar" begin="4500" end="5099" from="E0" to="E6" departLane="best" departPos="last" departSpeed="max" probability="0.3249" />
	<flow id="T7_Bus" type="vBus" begin="4500" end="5099" from="E0" to="E6" departLane="1" departPos="last" departSpeed="max" probability="0.1083" />
	<flow id="T7_Truck" type="vTruck" begin="4500" end="5099" from="E0" to="E6" departLane="0" departPos="last" departSpeed="max" probability="0.2166" />
	<flow id="T7_R_NormalCar" type="vNormalCar" begin="4500" end="5099" from="-E6" to="-E0" departLane="best" departPos="last" departSpeed="max" probability="0.4332" />
	<flow id="T7_R_FastCar" type="vFastCar" begin="4500" end="5099" from="-E6" to="-E0" departLane="best" departPos="last" departSpeed="max" probability="0.3249" />
	<flow id="T7_R_Bus" type="vBus" begin="4500" end="5099" from="-E6" to="-E0" departLane="1" departPos="last" departSpeed="max" probability="0.1083" />
	<flow id="T7_R_Truck" type="vTruck" begin="4500" end="5099" from="-E6" to="-E0" departLane="0" departPos="last" departSpeed="max" probability="0.2166" />
	
	<!-- Day #1 08:00-09:00 -->
	<flow id="T8_NormalCar" type="vNormalCar" begin="5100" end="5699" from="E0" to="E6" departLane="best" departPos="last" departSpeed="max" probability="0.6000" />
	<flow id="T8_FastCar" type="vFastCar" begin="5100" end="5699" from="E0" to="E6" departLane="best" departPos="last" departSpeed="max" probability="0.4500" />
	<flow id="T8_Bus" type="vBus" begin="5100" end="5699" from="E0" to="E6" departLane="1" departPos="last" departSpeed="max" probability="0.1500" />
	<flow id="T8_Truck" type="vTruck" begin="5100" end="5699" from="E0" to="E6" departLane="0" departPos="last" departSpeed="max" probability="0.3000" />
	<flow id="T8_R_NormalCar" type="vNormalCar" begin="5100" end="5699" from="-E6" to="-E0" departLane="best" departPos="last" departSpeed="max" probability="0.6000" />
	<flow id="T8_R_FastCar" type="vFastCar" begin="5100" end="5699" from="-E6" to="-E0" departLane="best" departPos="last" departSpeed="max" probability="0.4500" />
	<flow id="T8_R_Bus" type="vBus" begin="5100" end="5699" from="-E6" to="-E0" departLane="1" departPos="last" departSpeed="max" probability="0.1500" />
	<flow id="T8_R_Truck" type="vTruck" begin="5100" end="5699" from="-E6" to="-E0" departLane="0" departPos="last" departSpeed="max" probability="0.3000" />
	
	<!-- Day #1 09:00-10:00 -->
	<flow id="T9_NormalCar" type="vNormalCar" begin="5700" end="6299" from="E0" to="E6" departLane="best" departPos="last" departSpeed="max" probability="0.5664" />
	<flow id="T9_FastCar" type="vFastCar" begin="5700" end="6299" from="E0" to="E6" departLane="best" departPos="last" departSpeed="max" probability="0.4248" />
	<flow id="T9_Bus" type="vBus" begin="5700" end="6299" from="E0" to="E6" departLane="1" departPos="last" departSpeed="max" probability="0.1416" />
	<flow id="T9_Truck" type="vTruck" begin="5700" end="6299" from="E0" to="E6" departLane="0" departPos="last" departSpeed="max" probability="0.2832" />
	<flow id="T9_R_NormalCar" type="vNormalCar" begin="5700" end="6299" from="-E6" to="-E0" departLane="best" departPos="last" departSpeed="max" probability="0.5664" />
	<flow id="T9_R_FastCar" type="vFastCar" begin="5700" end="6299" from="-E6" to="-E0" departLane="best" departPos="last" departSpeed="max" probability="0.4248" />
	<flow id="T9_R_Bus" type="vBus" begin="5700" end="6299" from="-E6" to="-E0" departLane="1" departPos="last" departSpeed="max" probability="0.1416" />
	<flow id="T9_R_Truck" type="vTruck" begin="5700" end="6299" from="-E6" to="-E0" departLane="0" departPos="last" departSpeed="max" probability="0.2832" />
	
	<!-- Day #1 10:00-11:00 -->
	<flow id="T10_NormalCar" type="vNormalCar" begin="6300" end="6899" from="E0" to="E6" departLane="best" departPos="last" departSpeed="max" probability="0.3000" />
	<flow id="T10_FastCar" type="vFastCar" begin="6300" end="6899" from="E0" to="E6" departLane="best" departPos="last" departSpeed="max" probability="0.2250" />
	<flow id="T10_Bus" type="vBus" begin="6300" end="6899" from="E0" to="E6" departLane="1" departPos="last" departSpeed="max" probability="0.0750" />
	<flow id="T10_Truck" type="vTruck" begin="6300" end="6899" from="E0" to="E6" departLane="0" departPos="last" departSpeed="max" probability="0.1500" />
	<flow id="T10_R_NormalCar" type="vNormalCar" begin="6300" end="6899" from="-E6" to="-E0" departLane="best" departPos="last" departSpeed="max" probability="0.3000" />
	<flow id="T10_R_FastCar" type="vFastCar" begin="6300" end="6899" from="-E6" to="-E0" departLane="best" departPos="last" departSpeed="max" probability="0.2250" />
	<flow id="T10_R_Bus" type="vBus" begin="6300" end="6899" from="-E6" to="-E0" departLane="1" departPos="last" departSpeed="max" probability="0.0750" />
	<flow id="T10_R_Truck" type="vTruck" begin="6300" end="6899" from="-E6" to="-E0" departLane="0" departPos="last" departSpeed="max" probability="0.1500" />
	
	<!-- Day #1 11:00-12:00 -->
	<flow id="T11_NormalCar" type="vNormalCar" begin="6900" end="7499" from="E0" to="E6" departLane="best" departPos="last" departSpeed="max" probability="0.1596" />
	<flow id="T11_FastCar" type="vFastCar" begin="6900" end="7499" from="E0" to="E6" departLane="best" departPos="last" departSpeed="max" probability="0.1197" />
	<flow id="T11_Bus" type="vBus" begin="6900" end="7499" from="E0" to="E6" departLane="1" departPos="last" departSpeed="max" probability="0.0399" />
	<flow id="T11_Truck" type="vTruck" begin="6900" end="7499" from="E0" to="E6" departLane="0" departPos="last" departSpeed="max" probability="0.0798" />
	<flow id="T11_R_NormalCar" type="vNormalCar" begin="6900" end="7499" from="-E6" to="-E0" departLane="best" departPos="last" departSpeed="max" probability="0.1596" />
	<flow id="T11_R_FastCar" type="vFastCar" begin="6900" end="7499" from="-E6" to="-E0" departLane="best" departPos="last" departSpeed="max" probability="0.1197" />
	<flow id="T11_R_Bus" type="vBus" begin="6900" end="7499" from="-E6" to="-E0" departLane="1" departPos="last" departSpeed="max" probability="0.0399" />
	<flow id="T11_R_Truck" type="vTruck" begin="6900" end="7499" from="-E6" to="-E0" departLane="0" departPos="last" departSpeed="max" probability="0.0798" />
	
	<!-- Day #1 12:00-13:00 -->
	<flow id="T12_NormalCar" type="vNormalCar" begin="7500" end="8099" from="E0" to="E6" departLane="best" departPos="last" departSpeed="max" probability="0.2004" />
	<flow id="T12_FastCar" type="vFastCar" begin="7500" end="8099" from="E0" to="E6" departLane="best" departPos="last" departSpeed="max" probability="0.1503" />
	<flow id="T12_Bus" type="vBus" begin="7500" end="8099" from="E0" to="E6" departLane="1" departPos="last" departSpeed="max" probability="0.0501" />
	<flow id="T12_Truck" type="vTruck" begin="7500" end="8099" from="E0" to="E6" departLane="0" departPos="last" departSpeed="max" probability="0.1002" />
	<flow id="T12_R_NormalCar" type="vNormalCar" begin="7500" end="8099" from="-E6" to="-E0" departLane="best" departPos="last" departSpeed="max" probability="0.2004" />
	<flow id="T12_R_FastCar" type="vFastCar" begin="7500" end="8099" from="-E6" to="-E0" departLane="best" departPos="last" departSpeed="max" probability="0.1503" />
	<flow id="T12_R_Bus" type="vBus" begin="7500" end="8099" from="-E6" to="-E0" departLane="1" departPos="last" departSpeed="max" probability="0.0501" />
	<flow id="T12_R_Truck" type="vTruck" begin="7500" end="8099" from="-E6" to="-E0" departLane="0" departPos="last" departSpeed="max" probability="0.1002" />
	
	<!-- Day #1 13:00-14:00 -->
	<flow id="T13_NormalCar" type="vNormalCar" begin="8100" end="8699" from="E0" to="E6" departLane="best" departPos="last" departSpeed="max" probability="0.4272" />
	<flow id="T13_FastCar" type="vFastCar" begin="8100" end="8699" from="E0" to="E6" departLane="best" departPos="last" departSpeed="max" probability="0.3204" />
	<flow id="T13_Bus" type="vBus" begin="8100" end="8699" from="E0" to="E6" departLane="1" departPos="last" departSpeed="max" probability="0.1068" />
	<flow id="T13_Truck" type="vTruck" begin="8100" end="8699" from="E0" to="E6" departLane="0" departPos="last" departSpeed="max" probability="0.2136" />
	<flow id="T13_R_NormalCar" type="vNormalCar" begin="8100" end="8699" from="-E6" to="-E0" departLane="best" departPos="last" departSpeed="max" probability="0.4272" />
	<flow id="T13_R_FastCar" type="vFastCar" begin="8100" end="8699" from="-E6" to="-E0" departLane="best" departPos="last" departSpeed="max" probability="0.3204" />
	<flow id="T13_R_Bus" type="vBus" begin="8100" end="8699" from="-E6" to="-E0" departLane="1" departPos="last" departSpeed="max" probability="0.1068" />
	<flow id="T13_R_Truck" type="vTruck" begin="8100" end="8699" from="-E6" to="-E0" departLane="0" departPos="last" departSpeed="max" probability="0.2136" />
	
	<!-- Day #1 14:00-15:00 -->
	<flow id="T14_NormalCar" type="vNormalCar" begin="8700" end="9299" from="E0" to="E6" departLane="best" departPos="last" departSpeed="max" probability="0.3468" />
	<flow id="T14_FastCar" type="vFastCar" begin="8700" end="9299" from="E0" to="E6" departLane="best" departPos="last" departSpeed="max" probability="0.2601" />
	<flow id="T14_Bus" type="vBus" begin="8700" end="9299" from="E0" to="E6" departLane="1" departPos="last" departSpeed="max" probability="0.0867" />
	<flow id="T14_Truck" type="vTruck" begin="8700" end="9299" from="E0" to="E6" departLane="0" departPos="last" departSpeed="max" probability="0.1734" />
	<flow id="T14_R_NormalCar" type="vNormalCar" begin="8700" end="9299" from="-E6" to="-E0" departLane="best" departPos="last" departSpeed="max" probability="0.3468" />
	<flow id="T14_R_FastCar" type="vFastCar" begin="8700" end="9299" from="-E6" to="-E0" departLane="best" departPos="last" departSpeed="max" probability="0.2601" />
	<flow id="T14_R_Bus" type="vBus" begin="8700" end="9299" from="-E6" to="-E0" departLane="1" departPos="last" departSpeed="max" probability="0.0867" />
	<flow id="T14_R_Truck" type="vTruck" begin="8700" end="9299" from="-E6" to="-E0" departLane="0" departPos="last" departSpeed="max" probability="0.1734" />
	
	<!-- Day #1 15:00-16:00 -->
	<flow id="T15_NormalCar" type="vNormalCar" begin="9300" end="9899" from="E0" to="E6" departLane="best" departPos="last" departSpeed="max" probability="0.2136" />
	<flow id="T15_FastCar" type="vFastCar" begin="9300" end="9899" from="E0" to="E6" departLane="best" departPos="last" departSpeed="max" probability="0.1602" />
	<flow id="T15_Bus" type="vBus" begin="9300" end="9899" from="E0" to="E6" departLane="1" departPos="last" departSpeed="max" probability="0.0534" />
	<flow id="T15_Truck" type="vTruck" begin="9300" end="9899" from="E0" to="E6" departLane="0" departPos="last" departSpeed="max" probability="0.1068" />
	<flow id="T15_R_NormalCar" type="vNormalCar" begin="9300" end="9899" from="-E6" to="-E0" departLane="best" departPos="last" departSpeed="max" probability="0.2136" />
	<flow id="T15_R_FastCar" type="vFastCar" begin="9300" end="9899" from="-E6" to="-E0" departLane="best" departPos="last" departSpeed="max" probability="0.1602" />
	<flow id="T15_R_Bus" type="vBus" begin="9300" end="9899" from="-E6" to="-E0" departLane="1" departPos="last" departSpeed="max" probability="0.0534" />
	<flow id="T15_R_Truck" type="vTruck" begin="9300" end="9899" from="-E6" to="-E0" departLane="0" departPos="last" departSpeed="max" probability="0.1068" />
	
	<!-- Day #1 16:00-17:00 -->
	<flow id="T16_NormalCar" type="vNormalCar" begin="9900" end="10499" from="E0" to="E6" departLane="best" departPos="last" departSpeed="max" probability="0.2328" />
	<flow id="T16_FastCar" type="vFastCar" begin="9900" end="10499" from="E0" to="E6" departLane="best" departPos="last" departSpeed="max" probability="0.1746" />
	<flow id="T16_Bus" type="vBus" begin="9900" end="10499" from="E0" to="E6" departLane="1" departPos="last" departSpeed="max" probability="0.0582" />
	<flow id="T16_Truck" type="vTruck" begin="9900" end="10499" from="E0" to="E6" departLane="0" departPos="last" departSpeed="max" probability="0.1164" />
	<flow id="T16_R_NormalCar" type="vNormalCar" begin="9900" end="10499" from="-E6" to="-E0" departLane="best" departPos="last" departSpeed="max" probability="0.2328" />
	<flow id="T16_R_FastCar" type="vFastCar" begin="9900" end="10499" from="-E6" to="-E0" departLane="best" departPos="last" departSpeed="max" probability="0.1746" />
	<flow id="T16_R_Bus" type="vBus" begin="9900" end="10499" from="-E6" to="-E0" departLane="1" departPos="last" departSpeed="max" probability="0.0582" />
	<flow id="T16_R_Truck" type="vTruck" begin="9900" end="10499" from="-E6" to="-E0" departLane="0" departPos="last" departSpeed="max" probability="0.1164" />
	
	<!-- Day #1 17:00-18:00 -->
	<flow id="T17_NormalCar" type="vNormalCar" begin="10500" end="11099" from="E0" to="E6" departLane="best" departPos="last" departSpeed="max" probability="0.3864" />
	<flow id="T17_FastCar" type="vFastCar" begin="10500" end="11099" from="E0" to="E6" departLane="best" departPos="last" departSpeed="max" probability="0.2898" />
	<flow id="T17_Bus" type="vBus" begin="10500" end="11099" from="E0" to="E6" departLane="1" departPos="last" departSpeed="max" probability="0.0966" />
	<flow id="T17_Truck" type="vTruck" begin="10500" end="11099" from="E0" to="E6" departLane="0" departPos="last" departSpeed="max" probability="0.1932" />
	<flow id="T17_R_NormalCar" type="vNormalCar" begin="10500" end="11099" from="-E6" to="-E0" departLane="best" departPos="last" departSpeed="max" probability="0.3864" />
	<flow id="T17_R_FastCar" type="vFastCar" begin="10500" end="11099" from="-E6" to="-E0" departLane="best" departPos="last" departSpeed="max" probability="0.2898" />
	<flow id="T17_R_Bus" type="vBus" begin="10500" end="11099" from="-E6" to="-E0" departLane="1" departPos="last" departSpeed="max" probability="0.0966" />
	<flow id="T17_R_Truck" type="vTruck" begin="10500" end="11099" from="-E6" to="-E0" departLane="0" departPos="last" departSpeed="max" probability="0.1932" />
	
	<!-- Day #1 18:00-19:00 -->
	<flow id="T18_NormalCar" type="vNormalCar" begin="11100" end="11699" from="E0" to="E6" departLane="best" departPos="last" departSpeed="max" probability="0.5664" />
	<flow id="T18_FastCar" type="vFastCar" begin="11100" end="11699" from="E0" to="E6" departLane="best" departPos="last" departSpeed="max" probability="0.4248" />
	<flow id="T18_Bus" type="vBus" begin="11100" end="11699" from="E0" to="E6" departLane="1" departPos="last" departSpeed="max" probability="0.1416" />
	<flow id="T18_Truck" type="vTruck" begin="11100" end="11699" from="E0" to="E6" departLane="0" departPos="last" departSpeed="max" probability="0.2832" />
	<flow id="T18_R_NormalCar" type="vNormalCar" begin="11100" end="11699" from="-E6" to="-E0" departLane="best" departPos="last" departSpeed="max" probability="0.5664" />
	<flow id="T18_R_FastCar" type="vFastCar" begin="11100" end="11699" from="-E6" to="-E0" departLane="best" departPos="last" departSpeed="max" probability="0.4248" />
	<flow id="T18_R_Bus" type="vBus" begin="11100" end="11699" from="-E6" to="-E0" departLane="1" departPos="last" departSpeed="max" probability="0.1416" />
	<flow id="T18_R_Truck" type="vTruck" begin="11100" end="11699" from="-E6" to="-E0" departLane="0" departPos="last" departSpeed="max" probability="0.2832" />
	
	<!-- Day #1 19:00-20:00 -->
	<flow id="T19_NormalCar" type="vNormalCar" begin="11700" end="12299" from="E0" to="E6" departLane="best" departPos="last" departSpeed="max" probability="0.5604" />
	<flow id="T19_FastCar" type="vFastCar" begin="11700" end="12299" from="E0" to="E6" departLane="best" departPos="last" departSpeed="max" probability="0.4203" />
	<flow id="T19_Bus" type="vBus" begin="11700" end="12299" from="E0" to="E6" departLane="1" departPos="last" departSpeed="max" probability="0.1401" />
	<flow id="T19_Truck" type="vTruck" begin="11700" end="12299" from="E0" to="E6" departLane="0" departPos="last" departSpeed="max" probability="0.2802" />
	<flow id="T19_R_NormalCar" type="vNormalCar" begin="11700" end="12299" from="-E6" to="-E0" departLane="best" departPos="last" departSpeed="max" probability="0.5604" />
	<flow id="T19_R_FastCar" type="vFastCar" begin="11700" end="12299" from="-E6" to="-E0" departLane="best" departPos="last" departSpeed="max" probability="0.4203" />
	<flow id="T19_R_Bus" type="vBus" begin="11700" end="12299" from="-E6" to="-E0" departLane="1" departPos="last" departSpeed="max" probability="0.1401" />
	<flow id="T19_R_Truck" type="vTruck" begin="11700" end="12299" from="-E6" to="-E0" departLane="0" departPos="last" departSpeed="max" probability="0.2802" />
	
	<!-- Day #1 20:00-21:00 -->
	<flow id="T20_NormalCar" type="vNormalCar" begin="12300" end="12899" from="E0" to="E6" departLane="best" departPos="last" departSpeed="max" probability="0.4668" />
	<flow id="T20_FastCar" type="vFastCar" begin="12300" end="12899" from="E0" to="E6" departLane="best" departPos="last" departSpeed="max" probability="0.3501" />
	<flow id="T20_Bus" type="vBus" begin="12300" end="12899" from="E0" to="E6" departLane="1" departPos="last" departSpeed="max" probability="0.1167" />
	<flow id="T20_Truck" type="vTruck" begin="12300" end="12899" from="E0" to="E6" departLane="0" departPos="last" departSpeed="max" probability="0.2334" />
	<flow id="T20_R_NormalCar" type="vNormalCar" begin="12300" end="12899" from="-E6" to="-E0" departLane="best" departPos="last" departSpeed="max" probability="0.4668" />
	<flow id="T20_R_FastCar" type="vFastCar" begin="12300" end="12899" from="-E6" to="-E0" departLane="best" departPos="last" departSpeed="max" probability="0.3501" />
	<flow id="T20_R_Bus" type="vBus" begin="12300" end="12899" from="-E6" to="-E0" departLane="1" departPos="last" departSpeed="max" probability="0.1167" />
	<flow id="T20_R_Truck" type="vTruck" begin="12300" end="12899" from="-E6" to="-E0" departLane="0" departPos="last" departSpeed="max" probability="0.2334" />
	
	<!-- Day #1 21:00-22:00 -->
	<flow id="T21_NormalCar" type="vNormalCar" begin="12900" end="13499" from="E0" to="E6" departLane="best" departPos="last" departSpeed="max" probability="0.2004" />
	<flow id="T21_FastCar" type="vFastCar" begin="12900" end="13499" from="E0" to="E6" departLane="best" departPos="last" departSpeed="max" probability="0.1503" />
	<flow id="T21_Bus" type="vBus" begin="12900" end="13499" from="E0" to="E6" departLane="1" departPos="last" departSpeed="max" probability="0.0501" />