<?xml version="1.0" encoding="UTF-8"?>

<!-- generated on Thu 18 Jun 2020 09:37:21 PM +03 by Eclipse SUMO netedit Version 1.5.0
<configuration xmlns:xsi="http://www.w3.org/2001/XMLSchema-instance" xsi:noNamespaceSchemaLocation="http://sumo.dlr.de/xsd/netconvertConfiguration.xsd">

    <input>
        <sumo-net-file value="/home/kaan/V2X/sumo-traffic/highway-synthetic-shorter/highway-synthetic-shorter.net.xml"/>
    </input>

    <output>
        <output-file value="/home/kaan/V2X/sumo-traffic/highway-synthetic-shorter/highway-synthetic-shorter.net.xml"/>
    </output>

    <processing>
        <geometry.min-radius.fix.railways value="false"/>
        <geometry.max-grade.fix value="false"/>
        <offset.disable-normalization value="true"/>
        <lefthand value="false"/>
    </processing>

    <junctions>
        <no-internal-links value="true"/>
        <no-turnarounds value="true"/>
        <junctions.corner-detail value="5"/>
        <junctions.limit-turn-speed value="5.5"/>
        <rectangular-lane-cut value="false"/>
    </junctions>

    <pedestrian>
        <walkingareas value="false"/>
    </pedestrian>

    <report>
        <aggregate-warnings value="5"/>
    </report>

</configuration>
-->

<net version="1.3" junctionCornerDetail="5" limitTurnSpeed="5.50" xmlns:xsi="http://www.w3.org/2001/XMLSchema-instance" xsi:noNamespaceSchemaLocation="http://sumo.dlr.de/xsd/net_file.xsd">

    <location netOffset="-481594.76,-4415724.64" convBoundary="0.00,-100.00,4000.00,50.00" origBoundary="32.784721,39.891388,32.831495,39.892811" projParameter="+proj=utm +zone=36 +ellps=WGS84 +datum=WGS84 +units=m +no_defs"/>

    <edge id="-E0" from="J1" to="J0" priority="-1">
        <lane id="-E0_0" index="0" speed="36.11" length="100.00" shape="100.00,11.20 0.00,11.20"/>
        <lane id="-E0_1" index="1" speed="36.11" length="100.00" shape="100.00,8.00 0.00,8.00"/>
        <lane id="-E0_2" index="2" speed="36.11" length="100.00" shape="100.00,4.80 0.00,4.80"/>
        <lane id="-E0_3" index="3" disallow="all" speed="36.11" length="100.00" shape="100.00,1.60 0.00,1.60"/>
    </edge>
    <edge id="-E1" from="J2" to="J1" priority="-1">
        <lane id="-E1_0" index="0" speed="36.11" length="900.00" shape="999.60,11.20 100.00,11.20"/>
        <lane id="-E1_1" index="1" speed="36.11" length="900.00" shape="999.60,8.00 100.00,8.00"/>
        <lane id="-E1_2" index="2" speed="36.11" length="900.00" shape="999.60,4.80 100.00,4.80"/>
        <lane id="-E1_3" index="3" disallow="all" speed="36.11" length="900.00" shape="999.60,1.60 100.00,1.60"/>
    </edge>
    <edge id="-E2" from="J3" to="J2" priority="-1">
        <lane id="-E2_0" index="0" speed="36.11" length="801.56" shape="1798.37,61.12 999.70,11.20"/>
        <lane id="-E2_1" index="1" speed="36.11" length="801.56" shape="1798.57,57.93 999.90,8.01"/>
        <lane id="-E2_2" index="2" speed="36.11" length="801.56" shape="1798.77,54.73 1000.10,4.82"/>
        <lane id="-E2_3" index="3" disallow="all" speed="36.11" length="801.56" shape="1798.97,51.54 1000.30,1.62"/>
    </edge>
    <edge id="-E3" from="J4" to="J3" priority="-1">
        <lane id="-E3_0" index="0" speed="36.11" length="602.08" shape="2400.79,11.17 1801.86,61.08"/>
        <lane id="-E3_1" index="1" speed="36.11" length="602.08" shape="2400.52,7.98 1801.59,57.89"/>
        <lane id="-E3_2" index="2" speed="36.11" length="602.08" shape="2400.26,4.80 1801.33,54.71"/>
        <lane id="-E3_3" index="3" disallow="all" speed="36.11" length="602.08" shape="2399.99,1.61 1801.06,51.52"/>
    </edge>
    <edge id="-E4" from="J5" to="J4" priority="-1">
        <lane id="-E4_0" index="0" speed="36.11" length="1004.99" shape="3400.48,-88.79 2401.26,11.13"/>
        <lane id="-E4_1" index="1" speed="36.11" length="1004.99" shape="3400.16,-91.98 2400.94,7.95"/>
        <lane id="-E4_2" index="2" speed="36.11" length="1004.99" shape="3399.84,-95.16 2400.62,4.76"/>
        <lane id="-E4_3" index="3" disallow="all" speed="36.11" length="1004.99" shape="3399.52,-98.34 2400.30,1.58"/>
    </edge>
    <edge id="-E5" from="J6" to="J5" priority="-1">
        <lane id="-E5_0" index="0" speed="36.11" length="500.00" shape="3900.00,-88.80 3400.64,-88.80"/>
        <lane id="-E5_1" index="1" speed="36.11" length="500.00" shape="3900.00,-92.00 3400.64,-92.00"/>
        <lane id="-E5_2" index="2" speed="36.11" length="500.00" shape="3900.00,-95.20 3400.64,-95.20"/>
        <lane id="-E5_3" index="3" disallow="all" speed="36.11" length="500.00" shape="3900.00,-98.40 3400.64,-98.40"/>
    </edge>
    <edge id="-E6" from="J7" to="J6" priority="-1">
        <lane id="-E6_0" index="0" speed="36.11" length="100.00" shape="4000.00,-88.80 3900.00,-88.80"/>
        <lane id="-E6_1" index="1" speed="36.11" length="100.00" shape="4000.00,-92.00 3900.00,-92.00"/>
        <lane id="-E6_2" index="2" speed="36.11" length="100.00" shape="4000.00,-95.20 3900.00,-95.20"/>
        <lane id="-E6_3" index="3" disallow="all" speed="36.11" length="100.00" shape="4000.00,-98.40 3900.00,-98.40"/>
    </edge>
    <edge id="E0" from="J0" to="J1" priority="-1">
        <lane id="E0_0" index="0" speed="36.11" length="100.00" shape="0.00,-11.20 100.00,-11.20"/>
        <lane id="E0_1" index="1" speed="36.11" length="100.00" shape="0.00,-8.00 100.00,-8.00"/>
        <lane id="E0_2" index="2" speed="36.11" length="100.00" shape="0.00,-4.80 100.00,-4.80"/>
        <lane id="E0_3" index="3" disallow="all" speed="36.11" length="100.00" shape="0.00,-1.60 100.00,-1.60"/>
    </edge>
    <edge id="E1" from="J1" to="J2" priority="-1">
        <lane id="E1_0" index="0" speed="36.11" length="900.00" shape="100.00,-11.20 999.60,-11.20"/>
        <lane id="E1_1" index="1" speed="36.11" length="900.00" shape="100.00,-8.00 999.60,-8.00"/>
        <lane id="E1_2" index="2" speed="36.11" length="900.00" shape="100.00,-4.80 999.60,-4.80"/>
        <lane id="E1_3" index="3" disallow="all" speed="36.11" length="900.00" shape="100.00,-1.60 999.60,-1.60"/>
    </edge>
    <edge id="E2" from="J2" to="J3" priority="-1">
        <lane id="E2_0" index="0" speed="36.11" length="801.56" shape="1001.10,-11.15 1799.77,38.76"/>
        <lane id="E2_1" index="1" speed="36.11" length="801.56" shape="1000.90,-7.96 1799.57,41.96"/>
        <lane id="E2_2" index="2" speed="36.11" length="801.56" shape="1000.70,-4.77 1799.37,45.15"/>
        <lane id="E2_3" index="3" disallow="all" speed="36.11" length="801.56" shape="1000.50,-1.57 1799.17,48.34"/>
    </edge>
    <edge id="E3" from="J3" to="J4" priority="-1">
        <lane id="E3_0" index="0" speed="36.11" length="602.08" shape="1800.00,38.76 2398.93,-11.15"/>
        <lane id="E3_1" index="1" speed="36.11" length="602.08" shape="1800.27,41.95 2399.19,-7.96"/>
        <lane id="E3_2" index="2" speed="36.11" length="602.08" shape="1800.53,45.14 2399.46,-4.77"/>
        <lane id="E3_3" index="3" disallow="all" speed="36.11" length="602.08" shape="1800.80,48.33 2399.72,-1.58"/>
    </edge>
    <edge id="E4" from="J4" to="J5" priority="-1">
        <lane id="E4_0" index="0" speed="36.11" length="1004.99" shape="2399.03,-11.16 3398.25,-111.08"/>
        <lane id="E4_1" index="1" speed="36.11" length="1004.99" shape="2399.35,-7.97 3398.57,-107.90"/>
        <lane id="E4_2" index="2" speed="36.11" length="1004.99" shape="2399.66,-4.79 3398.89,-104.71"/>
        <lane id="E4_3" index="3" disallow="all" speed="36.11" length="1004.99" shape="2399.98,-1.61 3399.21,-101.53"/>
    </edge>
    <edge id="E5" from="J5" to="J6" priority="-1">
        <lane id="E5_0" index="0" speed="36.11" length="500.00" shape="3400.64,-111.20 3900.00,-111.20"/>
        <lane id="E5_1" index="1" speed="36.11" length="500.00" shape="3400.64,-108.00 3900.00,-108.00"/>
        <lane id="E5_2" index="2" speed="36.11" length="500.00" shape="3400.64,-104.80 3900.00,-104.80"/>
        <lane id="E5_3" index="3" disallow="all" speed="36.11" length="500.00" shape="3400.64,-101.60 3900.00,-101.60"/>
    </edge>
    <edge id="E6" from="J6" to="J7" priority="-1">
        <lane id="E6_0" index="0" speed="36.11" length="100.00" shape="3900.00,-111.20 4000.00,-111.20"/>
        <lane id="E6_1" index="1" speed="36.11" length="100.00" shape="3900.00,-108.00 4000.00,-108.00"/>
        <lane id="E6_2" index="2" speed="36.11" length="100.00" shape="3900.00,-104.80 4000.00,-104.80"/>
        <lane id="E6_3" index="3" disallow="all" speed="36.11" length="100.00" shape="3900.00,-101.60 4000.00,-101.60"/>
    </edge>

    <junction id="J0" type="dead_end" x="0.00" y="0.00" incLanes="-E0_0 -E0_1 -E0_2 -E0_3" intLanes="" shape="0.00,-3.20 0.00,12.80 0.00,3.20"/>
    <junction id="J1" type="priority" x="100.00" y="0.00" incLanes="-E1_0 -E1_1 -E1_2 -E1_3 E0_0 E0_1 E0_2 E0_3" intLanes="" shape="100.00,12.80 100.00,-12.80 100.00,12.80">
        <request index="0" response="00000000" foes="00000000"/>
        <request index="1" response="00000000" foes="00000000"/>
        <request index="2" response="00000000" foes="00000000"/>
        <request index="3" response="00000000" foes="00000000"/>
        <request index="4" response="00000000" foes="00000000"/>
        <request index="5" response="00000000" foes="00000000"/>
        <request index="6" response="00000000" foes="00000000"/>
        <request index="7" response="00000000" foes="00000000"/>
    </junction>
    <junction id="J2" type="priority" x="1000.00" y="0.00" incLanes="-E2_0 -E2_1 -E2_2 -E2_3 E1_0 E1_1 E1_2 E1_3" intLanes="" shape="999.60,12.80 1001.20,-12.75 999.60,-12.80">
        <request index="0" response="00000000" foes="00000000"/>
        <request index="1" response="00000000" foes="00000000"/>
        <request index="2" response="00000000" foes="00000000"/>
        <request index="3" response="00000000" foes="00000000"/>
        <request index="4" response="00000000" foes="00000000"/>
        <request index="5" response="00000000" foes="00000000"/>
        <request index="6" response="00000000" foes="00000000"/>
        <request index="7" response="00000000" foes="00000000"/>
    </junction>
    <junction id="J3" type="priority" x="1800.00" y="50.00" incLanes="-E3_0 -E3_1 -E3_2 -E3_3 E2_0 E2_1 E2_2 E2_3" intLanes="" shape="1801.99,62.68 1799.87,37.17 1798.27,62.72 1799.65,62.79 1800.13,62.80 1800.62,62.78 1801.20,62.74">
        <request index="0" response="00000000" foes="00000000"/>
        <request index="1" response="00000000" foes="00000000"/>
        <request index="2" response="00000000" foes="00000000"/>
        <request index="3" response="00000000" foes="00000000"/>
        <request index="4" response="00000000" foes="00000000"/>
        <request index="5" response="00000000" foes="00000000"/>
        <request index="6" response="00000000" foes="00000000"/>
        <request index="7" response="00000000" foes="00000000"/>
    </junction>
    <junction id="J4" type="priority" x="2400.00" y="0.00" incLanes="-E4_0 -E4_1 -E4_2 -E4_3 E3_0 E3_1 E3_2 E3_3" intLanes="" shape="2401.42,12.72 2398.87,-12.75 2400.92,12.77">
        <request index="0" response="00000000" foes="00000000"/>
        <request index="1" response="00000000" foes="00000000"/>
        <request index="2" response="00000000" foes="00000000"/>
        <request index="3" response="00000000" foes="00000000"/>
        <request index="4" response="00000000" foes="00000000"/>
        <request index="5" response="00000000" foes="00000000"/>
        <request index="6" response="00000000" foes="00000000"/>
        <request index="7" response="00000000" foes="00000000"/>
    </junction>
    <junction id="J5" type="priority" x="3400.00" y="-100.00" incLanes="-E5_0 -E5_1 -E5_2 -E5_3 E4_0 E4_1 E4_2 E4_3" intLanes="" shape="3400.64,-87.20 3400.64,-112.80 3399.69,-112.80 3399.36,-112.78 3399.03,-112.76 3398.63,-112.73 3398.09,-112.67">
        <request index="0" response="00000000" foes="00000000"/>
        <request index="1" response="00000000" foes="00000000"/>
        <request index="2" response="00000000" foes="00000000"/>
        <request index="3" response="00000000" foes="00000000"/>
        <request index="4" response="00000000" foes="00000000"/>
        <request index="5" response="00000000" foes="00000000"/>
        <request index="6" response="00000000" foes="00000000"/>
        <request index="7" response="00000000" foes="00000000"/>
    </junction>
    <junction id="J6" type="priority" x="3900.00" y="-100.00" incLanes="-E6_0 -E6_1 -E6_2 -E6_3 E5_0 E5_1 E5_2 E5_3" intLanes="" shape="3900.00,-87.20 3900.00,-112.80 3900.00,-87.20">
        <request index="0" response="00000000" foes="00000000"/>
        <request index="1" response="00000000" foes="00000000"/>
        <request index="2" response="00000000" foes="00000000"/>
        <request index="3" response="00000000" foes="00000000"/>
        <request index="4" response="00000000" foes="00000000"/>
        <request index="5" response="00000000" foes="00000000"/>
        <request index="6" response="00000000" foes="00000000"/>
        <request index="7" response="00000000" foes="00000000"/>
    </junction>
    <junction id="J7" type="dead_end" x="4000.00" y="-100.00" incLanes="E6_0 E6_1 E6_2 E6_3" intLanes="" shape="4000.00,-96.80 4000.00,-112.80 4000.00,-103.20"/>

    <connection from="-E1" to="-E0" fromLane="0" toLane="0" dir="s" state="M"/>
    <connection from="-E1" to="-E0" fromLane="1" toLane="1" dir="s" state="M"/>
    <connection from="-E1" to="-E0" fromLane="2" toLane="2" dir="s" state="M"/>
    <connection from="-E1" to="-E0" fromLane="3" toLane="3" dir="s" state="M"/>
    <connection from="-E2" to="-E1" fromLane="0" toLane="0" dir="s" state="M"/>
    <connection from="-E2" to="-E1" fromLane="1" toLane="1" dir="s" state="M"/>
    <connection from="-E2" to="-E1" fromLane="2" toLane="2" dir="s" state="M"/>
    <connection from="-E2" to="-E1" fromLane="3" toLane="3" dir="s" state="M"/>
    <connection from="-E3" to="-E2" fromLane="0" toLane="0" dir="s" state="M"/>
    <connection from="-E3" to="-E2" fromLane="1" toLane="1" dir="s" state="M"/>
    <connection from="-E3" to="-E2" fromLane="2" toLane="2" dir="s" state="M"/>
    <connection from="-E3" to="-E2" fromLane="3" toLane="3" dir="s" state="M"/>
    <connection from="-E4" to="-E3" fromLane="0" toLane="0" dir="s" state="M"/>
    <connection from="-E4" to="-E3" fromLane="1" toLane="1" dir="s" state="M"/>
    <connection from="-E4" to="-E3" fromLane="2" toLane="2" dir="s" state="M"/>
    <connection from="-E4" to="-E3" fromLane="3" toLane="3" dir="s" state="M"/>
    <connection from="-E5" to="-E4" fromLane="0" toLane="0" dir="s" state="M"/>
    <connection from="-E5" to="-E4" fromLane="1" toLane="1" dir="s" state="M"/>
    <connection from="-E5" to="-E4" fromLane="2" toLane="2" dir="s" state="M"/>
    <connection from="-E5" to="-E4" fromLane="3" toLane="3" dir="s" state="M"/>
    <connection from="-E6" to="-E5" fromLane="0" toLane="0" dir="s" state="M"/>
    <connection from="-E6" to="-E5" fromLane="1" toLane="1" dir="s" state="M"/>
    <connection from="-E6" to="-E5" fromLane="2" toLane="2" dir="s" state="M"/>
    <connection from="-E6" to="-E5" fromLane="3" toLane="3" dir="s" state="M"/>
    <connection from="E0" to="E1" fromLane="0" toLane="0" dir="s" state="M"/>
    <connection from="E0" to="E1" fromLane="1" toLane="1" dir="s" state="M"/>
    <connection from="E0" to="E1" fromLane="2" toLane="2" dir="s" state="M"/>
    <connection from="E0" to="E1" fromLane="3" toLane="3" dir="s" state="M"/>
    <connection from="E1" to="E2" fromLane="0" toLane="0" dir="s" state="M"/>
    <connection from="E1" to="E2" fromLane="1" toLane="1" dir="s" state="M"/>
    <connection from="E1" to="E2" fromLane="2" toLane="2" dir="s" state="M"/>
    <connection from="E1" to="E2" fromLane="3" toLane="3" dir="s" state="M"/>
    <connection from="E2" to="E3" fromLane="0" toLane="0" dir="s" state="M"/>
    <connection from="E2" to="E3" fromLane="1" toLane="1" dir="s" state="M"/>
    <connection from="E2" to="E3" fromLane="2" toLane="2" dir="s" state="M"/>
    <connection from="E2" to="E3" fromLane="3" toLane="3" dir="s" state="M"/>
    <connection from="E3" to="E4" fromLane="0" toLane="0" dir="s" state="M"/>
    <connection from="E3" to="E4" fromLane="1" toLane="1" dir="s" state="M"/>
    <connection from="E3" to="E4" fromLane="2" toLane="2" dir="s" state="M"/>
    <connection from="E3" to="E4" fromLane="3" toLane="3" dir="s" state="M"/>
    <connection from="E4" to="E5" fromLane="0" toLane="0" dir="s" state="M"/>
    <connection from="E4" to="E5" fromLane="1" toLane="1" dir="s" state="M"/>
    <connection from="E4" to="E5" fromLane="2" toLane="2" dir="s" state="M"/>
    <connection from="E4" to="E5" fromLane="3" toLane="3" dir="s" state="M"/>
    <connection from="E5" to="E6" fromLane="0" toLane="0" dir="s" state="M"/>
    <connection from="E5" to="E6" fromLane="1" toLane="1" dir="s" state="M"/>
    <connection from="E5" to="E6" fromLane="2" toLane="2" dir="s" state="M"/>
    <connection from="E5" to="E6" fromLane="3" toLane="3" dir="s" state="M"/>

</net>
