<?xml version="1.0" encoding="UTF-8"?>

<additional>
   <inductionLoop id="ILD_E1_0" lane="E1_0" pos="0" freq="3600" file="out/induction-loop-data.E1_0.out.xml" friendlyPos="false"/>
   <inductionLoop id="ILD_E1_1" lane="E1_1" pos="0" freq="3600" file="out/induction-loop-data.E1_1.out.xml" friendlyPos="false"/>
   <inductionLoop id="ILD_E1_2" lane="E1_2" pos="0" freq="3600" file="out/induction-loop-data.E1_2.out.xml" friendlyPos="false"/>   
   <inductionLoop id="ILD_E5_0" lane="E5_0" pos="500" freq="3600" file="out/induction-loop-data.E5_0.out.xml" friendlyPos="false"/>
   <inductionLoop id="ILD_E5_1" lane="E5_1" pos="500" freq="3600" file="out/induction-loop-data.E5_1.out.xml" friendlyPos="false"/>
   <inductionLoop id="ILD_E5_2" lane="E5_2" pos="500" freq="3600" file="out/induction-loop-data.E5_2.out.xml" friendlyPos="false"/>
</additional>