<?xml version="1.0" encoding="UTF-8"?>

<routes xmlns:xsi="http://www.w3.org/2001/XMLSchema-instance" xsi:noNamespaceSchemaLocation="http://sumo.dlr.de/xsd/routes_file.xsd">

	<!-- Define Vehicle Types -->
	<vType id="vNormalCar" vClass="passenger" color="yellow" length="5.0" minGap="2.5" accel="2.6" decel="4.5" maxSpeed="55.55" speedFactor="0.9" speedDev="0.2" sigma="0.4" />
    <vType id="vFastCar" vClass="passenger" color="red" length="5.0" minGap="2.5" accel="3.5" decel="6.0" maxSpeed="66.66" speedFactor="1.1" speedDev="0.1" sigma="0.2" />
    <vType id="vBus" vClass="coach" color="blue" length="12.0" minGap="5.0" accel="2.0" decel="3.5" maxSpeed="40" speedFactor="0.8" speedDev="0.1" sigma="0.1" />
    <vType id="vTruck" vClass="trailer" color="green"  length="10.0" minGap="5.0" accel="1.7" decel="3.0" maxSpeed="30" speedFactor="0.7" speedDev="0.1" sigma="0.1" />
	
	<!-- Define Vehicle Flows
			Poisson generated vehicles such that lambda changes in every hour with respect to the desired traffic demand
			Total volume will be %40 NormalCar, %30 FastCar, %10 Bus, %20 Truck -->	
		
	<!-- Day #1 14:00-15:00 -->
	<flow id="T14_NormalCar" type="vNormalCar" begin="0" end="3599" from="E0" to="E30" departLane="best" departPos="last" departSpeed="max" probability="0.3468" />
	<flow id="T14_FastCar" type="vFastCar" begin="0" end="3599" from="E0" to="E30" departLane="best" departPos="last" departSpeed="max" probability="0.2601" />
	<flow id="T14_Bus" type="vBus" begin="0" end="3599" from="E0" to="E30" departLane="1" departPos="last" departSpeed="max" probability="0.0867" />
	<flow id="T14_Truck" type="vTruck" begin="0" end="3599" from="E0" to="E30" departLane="0" departPos="last" departSpeed="max" probability="0.1734" />

</routes>
