<?xml version="1.0" encoding="UTF-8"?>

<!-- generated on Sun 26 Apr 2020 06:32:57 PM +03 by Eclipse SUMO netedit Version 1.5.0
<configuration xmlns:xsi="http://www.w3.org/2001/XMLSchema-instance" xsi:noNamespaceSchemaLocation="http://sumo.dlr.de/xsd/netconvertConfiguration.xsd">

    <input>
        <sumo-net-file value="/home/kaan/V2X/v2x-sim/sumo/highway-synthetic/highway-synthetic.net.xml"/>
    </input>

    <output>
        <output-file value="/home/kaan/V2X/v2x-sim/sumo/highway-synthetic/highway-synthetic.net.xml"/>
    </output>

    <processing>
        <geometry.min-radius.fix.railways value="false"/>
        <geometry.max-grade.fix value="false"/>
        <offset.disable-normalization value="true"/>
        <lefthand value="false"/>
    </processing>

    <junctions>
        <no-internal-links value="true"/>
        <no-turnarounds value="true"/>
        <junctions.corner-detail value="5"/>
        <junctions.limit-turn-speed value="5.5"/>
        <rectangular-lane-cut value="false"/>
    </junctions>

    <pedestrian>
        <walkingareas value="false"/>
    </pedestrian>

    <report>
        <aggregate-warnings value="5"/>
    </report>

</configuration>
-->

<net version="1.3" junctionCornerDetail="5" limitTurnSpeed="5.50" xmlns:xsi="http://www.w3.org/2001/XMLSchema-instance" xsi:noNamespaceSchemaLocation="http://sumo.dlr.de/xsd/net_file.xsd">

    <location netOffset="-481594.76,-4415724.64" convBoundary="0.00,-100.00,34200.00,6900.00" origBoundary="32.784721,39.891388,33.184915,39.95451" projParameter="+proj=utm +zone=36 +ellps=WGS84 +datum=WGS84 +units=m +no_defs"/>

    <edge id="-E0" from="J1" to="J0" priority="-1">
        <lane id="-E0_0" index="0" speed="36.11" length="100.00" shape="100.00,11.20 0.00,11.20"/>
        <lane id="-E0_1" index="1" speed="36.11" length="100.00" shape="100.00,8.00 0.00,8.00"/>
        <lane id="-E0_2" index="2" speed="36.11" length="100.00" shape="100.00,4.80 0.00,4.80"/>
        <lane id="-E0_3" index="3" disallow="all" speed="36.11" length="100.00" shape="100.00,1.60 0.00,1.60"/>
    </edge>
    <edge id="-E1" from="J2" to="J1" priority="-1">
        <lane id="-E1_0" index="0" speed="36.11" length="900.00" shape="999.20,11.20 100.00,11.20"/>
        <lane id="-E1_1" index="1" speed="36.11" length="900.00" shape="999.20,8.00 100.00,8.00"/>
        <lane id="-E1_2" index="2" speed="36.11" length="900.00" shape="999.20,4.80 100.00,4.80"/>
        <lane id="-E1_3" index="3" disallow="all" speed="36.11" length="900.00" shape="999.20,1.60 100.00,1.60"/>
    </edge>
    <edge id="-E10" from="J11" to="J10" priority="-1">
        <lane id="-E10_0" index="0" speed="36.11" length="1118.03" shape="8700.87,-88.77 7602.51,110.93"/>
        <lane id="-E10_1" index="1" speed="36.11" length="1118.03" shape="8700.30,-91.92 7601.94,107.78"/>
        <lane id="-E10_2" index="2" speed="36.11" length="1118.03" shape="8699.72,-95.07 7601.36,104.63"/>
        <lane id="-E10_3" index="3" disallow="all" speed="36.11" length="1118.03" shape="8699.15,-98.22 7600.79,101.48"/>
    </edge>
    <edge id="-E11" from="J12" to="J11" priority="-1">
        <lane id="-E11_0" index="0" speed="36.11" length="1400.00" shape="10099.42,-88.80 8701.15,-88.80"/>
        <lane id="-E11_1" index="1" speed="36.11" length="1400.00" shape="10099.42,-92.00 8701.15,-92.00"/>
        <lane id="-E11_2" index="2" speed="36.11" length="1400.00" shape="10099.42,-95.20 8701.15,-95.20"/>
        <lane id="-E11_3" index="3" disallow="all" speed="36.11" length="1400.00" shape="10099.42,-98.40 8701.15,-98.40"/>
    </edge>
    <edge id="-E12" from="J13" to="J12" priority="-1">
        <lane id="-E12_0" index="0" speed="36.11" length="1104.54" shape="11198.41,11.10 10099.56,-88.79"/>
        <lane id="-E12_1" index="1" speed="36.11" length="1104.54" shape="11198.70,7.91 10099.85,-91.98"/>
        <lane id="-E12_2" index="2" speed="36.11" length="1104.54" shape="11198.99,4.73 10100.14,-95.17"/>
        <lane id="-E12_3" index="3" disallow="all" speed="36.11" length="1104.54" shape="11199.28,1.54 10100.43,-98.35"/>
    </edge>
    <edge id="-E13" from="J14" to="J13" priority="-1">
        <lane id="-E13_0" index="0" speed="36.11" length="800.00" shape="11999.64,11.20 11200.58,11.20"/>
        <lane id="-E13_1" index="1" speed="36.11" length="800.00" shape="11999.64,8.00 11200.58,8.00"/>
        <lane id="-E13_2" index="2" speed="36.11" length="800.00" shape="11999.64,4.80 11200.58,4.80"/>
        <lane id="-E13_3" index="3" disallow="all" speed="36.11" length="800.00" shape="11999.64,1.60 11200.58,1.60"/>
    </edge>
    <edge id="-E14" from="J15" to="J14" priority="-1">
        <lane id="-E14_0" index="0" speed="36.11" length="1802.78" shape="13800.03,-88.78 12000.98,11.16"/>
        <lane id="-E14_1" index="1" speed="36.11" length="1802.78" shape="13799.85,-91.98 12000.80,7.97"/>
        <lane id="-E14_2" index="2" speed="36.11" length="1802.78" shape="13799.67,-95.17 12000.62,4.77"/>
        <lane id="-E14_3" index="3" disallow="all" speed="36.11" length="1802.78" shape="13799.50,-98.37 12000.44,1.58"/>
    </edge>
    <edge id="-E15" from="J16" to="J15" priority="-1">
        <lane id="-E15_0" index="0" speed="36.11" length="2701.85" shape="16499.32,11.18 13800.18,-88.79"/>
        <lane id="-E15_1" index="1" speed="36.11" length="2701.85" shape="16499.44,7.98 13800.30,-91.98"/>
        <lane id="-E15_2" index="2" speed="36.11" length="2701.85" shape="16499.56,4.79 13800.41,-95.18"/>
        <lane id="-E15_3" index="3" disallow="all" speed="36.11" length="2701.85" shape="16499.68,1.59 13800.53,-98.38"/>
    </edge>
    <edge id="-E16" from="J17" to="J16" priority="-1">
        <lane id="-E16_0" index="0" speed="36.11" length="2000.00" shape="18499.51,11.20 16500.26,11.20"/>
        <lane id="-E16_1" index="1" speed="36.11" length="2000.00" shape="18499.51,8.00 16500.26,8.00"/>
        <lane id="-E16_2" index="2" speed="36.11" length="2000.00" shape="18499.51,4.80 16500.26,4.80"/>
        <lane id="-E16_3" index="3" disallow="all" speed="36.11" length="2000.00" shape="18499.51,1.60 16500.26,1.60"/>
    </edge>
    <edge id="-E17" from="J18" to="J17" priority="-1">
        <lane id="-E17_0" index="0" speed="36.11" length="1303.84" shape="19798.48,111.12 18499.63,11.20"/>
        <lane id="-E17_1" index="1" speed="36.11" length="1303.84" shape="19798.73,107.93 18499.88,8.01"/>
        <lane id="-E17_2" index="2" speed="36.11" length="1303.84" shape="19798.97,104.74 18500.12,4.82"/>
        <lane id="-E17_3" index="3" disallow="all" speed="36.11" length="1303.84" shape="19799.22,101.54 18500.37,1.63"/>
    </edge>
    <edge id="-E18" from="J19" to="J18" priority="-1">
        <lane id="-E18_0" index="0" speed="36.11" length="1118.03" shape="20896.49,310.75 19798.65,111.14"/>
        <lane id="-E18_1" index="1" speed="36.11" length="1118.03" shape="20897.06,307.60 19799.22,107.99"/>
        <lane id="-E18_2" index="2" speed="36.11" length="1118.03" shape="20897.63,304.45 19799.79,104.84"/>
        <lane id="-E18_3" index="3" disallow="all" speed="36.11" length="1118.03" shape="20898.21,301.30 19800.36,101.69"/>
    </edge>
    <edge id="-E19" from="J20" to="J19" priority="-1">
        <lane id="-E19_0" index="0" speed="36.11" length="984.89" shape="21794.75,709.92 20896.85,310.86"/>
        <lane id="-E19_1" index="1" speed="36.11" length="984.89" shape="21796.05,707.00 20898.15,307.93"/>
        <lane id="-E19_2" index="2" speed="36.11" length="984.89" shape="21797.35,704.07 20899.45,305.01"/>
        <lane id="-E19_3" index="3" disallow="all" speed="36.11" length="984.89" shape="21798.65,701.15 20900.75,302.08"/>
    </edge>
    <edge id="-E2" from="J3" to="J2" priority="-1">
        <lane id="-E2_0" index="0" speed="36.11" length="806.23" shape="1796.76,110.88 999.40,11.21"/>
        <lane id="-E2_1" index="1" speed="36.11" length="806.23" shape="1797.16,107.71 999.80,8.04"/>
        <lane id="-E2_2" index="2" speed="36.11" length="806.23" shape="1797.55,104.53 1000.20,4.86"/>
        <lane id="-E2_3" index="3" disallow="all" speed="36.11" length="806.23" shape="1797.95,101.36 1000.59,1.69"/>
    </edge>
    <edge id="-E20" from="J21" to="J20" priority="-1">
        <lane id="-E20_0" index="0" speed="36.11" length="1360.15" shape="23095.30,1110.27 21797.44,710.93"/>
        <lane id="-E20_1" index="1" speed="36.11" length="1360.15" shape="23096.24,1107.21 21798.38,707.87"/>
        <lane id="-E20_2" index="2" speed="36.11" length="1360.15" shape="23097.18,1104.15 21799.32,704.81"/>
        <lane id="-E20_3" index="3" disallow="all" speed="36.11" length="1360.15" shape="23098.12,1101.10 21800.26,701.75"/>
    </edge>
    <edge id="-E21" from="J22" to="J21" priority="-1">
        <lane id="-E21_0" index="0" speed="36.11" length="1389.24" shape="24294.00,1809.47 23095.63,1110.42"/>
        <lane id="-E21_1" index="1" speed="36.11" length="1389.24" shape="24295.61,1806.70 23097.24,1107.65"/>
        <lane id="-E21_2" index="2" speed="36.11" length="1389.24" shape="24297.23,1803.94 23098.86,1104.89"/>
        <lane id="-E21_3" index="3" disallow="all" speed="36.11" length="1389.24" shape="24298.84,1801.17 23100.47,1102.13"/>
    </edge>
    <edge id="-E22" from="J23" to="J22" priority="-1">
        <lane id="-E22_0" index="0" speed="36.11" length="1788.85" shape="25894.71,2609.88 24295.36,1810.20"/>
        <lane id="-E22_1" index="1" speed="36.11" length="1788.85" shape="25896.14,2607.02 24296.79,1807.34"/>
        <lane id="-E22_2" index="2" speed="36.11" length="1788.85" shape="25897.57,2604.15 24298.22,1804.48"/>
        <lane id="-E22_3" index="3" disallow="all" speed="36.11" length="1788.85" shape="25899.01,2601.29 24299.65,1801.62"/>
    </edge>
    <edge id="-E23" from="J24" to="J23" priority="-1">
        <lane id="-E23_0" index="0" speed="36.11" length="1969.77" shape="27693.54,3409.39 25895.74,2610.36"/>
        <lane id="-E23_1" index="1" speed="36.11" length="1969.77" shape="27694.84,3406.46 25897.04,2607.44"/>
        <lane id="-E23_2" index="2" speed="36.11" length="1969.77" shape="27696.14,3403.54 25898.34,2604.51"/>
        <lane id="-E23_3" index="3" disallow="all" speed="36.11" length="1969.77" shape="27697.44,3400.61 25899.64,2601.59"/>
    </edge>
    <edge id="-E24" from="J25" to="J24" priority="-1">
        <lane id="-E24_0" index="0" speed="36.11" length="1627.88" shape="28892.01,4507.87 27693.97,3409.67"/>
        <lane id="-E24_1" index="1" speed="36.11" length="1627.88" shape="28894.17,4505.51 27696.13,3407.31"/>
        <lane id="-E24_2" index="2" speed="36.11" length="1627.88" shape="28896.34,4503.15 27698.30,3404.95"/>
        <lane id="-E24_3" index="3" disallow="all" speed="36.11" length="1627.88" shape="28898.50,4500.79 27700.46,3402.59"/>
    </edge>
    <edge id="-E25" from="J26" to="J25" priority="-1">
        <lane id="-E25_0" index="0" speed="36.11" length="2140.09" shape="30591.69,5807.75 28893.65,4509.24"/>
        <lane id="-E25_1" index="1" speed="36.11" length="2140.09" shape="30593.63,5805.20 28895.59,4506.70"/>
        <lane id="-E25_2" index="2" speed="36.11" length="2140.09" shape="30595.58,5802.66 28897.54,4504.16"/>
        <lane id="-E25_3" index="3" disallow="all" speed="36.11" length="2140.09" shape="30597.52,5800.12 28899.48,4501.62"/>
    </edge>
    <edge id="-E26" from="J27" to="J26" priority="-1">
        <lane id="-E26_0" index="0" speed="36.11" length="854.40" shape="31394.49,6109.90 30597.84,5811.15"/>
        <lane id="-E26_1" index="1" speed="36.11" length="854.40" shape="31395.62,6106.90 30598.97,5808.16"/>
        <lane id="-E26_2" index="2" speed="36.11" length="854.40" shape="31396.74,6103.90 30600.09,5805.16"/>
        <lane id="-E26_3" index="3" disallow="all" speed="36.11" length="854.40" shape="31397.86,6100.91 30601.21,5802.16"/>
    </edge>
    <edge id="-E27" from="J28" to="J27" priority="-1">
        <lane id="-E27_0" index="0" speed="36.11" length="860.23" shape="32091.25,6607.52 31394.86,6110.09"/>
        <lane id="-E27_1" index="1" speed="36.11" length="860.23" shape="32093.11,6604.91 31396.72,6107.49"/>
        <lane id="-E27_2" index="2" speed="36.11" length="860.23" shape="32094.97,6602.31 31398.58,6104.88"/>
        <lane id="-E27_3" index="3" disallow="all" speed="36.11" length="860.23" shape="32096.83,6599.71 31400.44,6102.28"/>
    </edge>
    <edge id="-E28" from="J29" to="J28" priority="-1">
        <lane id="-E28_0" index="0" speed="36.11" length="1529.71" shape="33596.56,6910.73 32100.50,6611.52"/>
        <lane id="-E28_1" index="1" speed="36.11" length="1529.71" shape="33597.19,6907.60 32101.13,6608.38"/>
        <lane id="-E28_2" index="2" speed="36.11" length="1529.71" shape="33597.82,6904.46 32101.75,6605.25"/>
        <lane id="-E28_3" index="3" disallow="all" speed="36.11" length="1529.71" shape="33598.44,6901.32 32102.38,6602.11"/>
    </edge>
    <edge id="-E29" from="J30" to="J29" priority="-1">
        <lane id="-E29_0" index="0" speed="36.11" length="500.00" shape="34100.00,6911.20 33601.27,6911.20"/>
        <lane id="-E29_1" index="1" speed="36.11" length="500.00" shape="34100.00,6908.00 33601.27,6908.00"/>
        <lane id="-E29_2" index="2" speed="36.11" length="500.00" shape="34100.00,6904.80 33601.27,6904.80"/>
        <lane id="-E29_3" index="3" disallow="all" speed="36.11" length="500.00" shape="34100.00,6901.60 33601.27,6901.60"/>
    </edge>
    <edge id="-E3" from="J4" to="J3" priority="-1">
        <lane id="-E3_0" index="0" speed="36.11" length="608.28" shape="2401.43,11.12 1803.68,110.74"/>
        <lane id="-E3_1" index="1" speed="36.11" length="608.28" shape="2400.90,7.96 1803.16,107.58"/>
        <lane id="-E3_2" index="2" speed="36.11" length="608.28" shape="2400.38,4.80 1802.63,104.43"/>
        <lane id="-E3_3" index="3" disallow="all" speed="36.11" length="608.28" shape="2399.85,1.65 1802.10,101.27"/>
    </edge>
    <edge id="-E30" from="J31" to="J30" priority="-1">
        <lane id="-E30_0" index="0" speed="36.11" length="100.00" shape="34200.00,6911.20 34100.00,6911.20"/>
        <lane id="-E30_1" index="1" speed="36.11" length="100.00" shape="34200.00,6908.00 34100.00,6908.00"/>
        <lane id="-E30_2" index="2" speed="36.11" length="100.00" shape="34200.00,6904.80 34100.00,6904.80"/>
        <lane id="-E30_3" index="3" disallow="all" speed="36.11" length="100.00" shape="34200.00,6901.60 34100.00,6901.60"/>
    </edge>
    <edge id="-E4" from="J5" to="J4" priority="-1">
        <lane id="-E4_0" index="0" speed="36.11" length="1004.99" shape="3400.48,-88.79 2401.53,11.10"/>
        <lane id="-E4_1" index="1" speed="36.11" length="1004.99" shape="3400.16,-91.98 2401.21,7.92"/>
        <lane id="-E4_2" index="2" speed="36.11" length="1004.99" shape="3399.84,-95.16 2400.89,4.73"/>
        <lane id="-E4_3" index="3" disallow="all" speed="36.11" length="1004.99" shape="3399.52,-98.34 2400.58,1.55"/>
    </edge>
    <edge id="-E5" from="J6" to="J5" priority="-1">
        <lane id="-E5_0" index="0" speed="36.11" length="500.00" shape="3899.57,-88.80 3400.64,-88.80"/>
        <lane id="-E5_1" index="1" speed="36.11" length="500.00" shape="3899.57,-92.00 3400.64,-92.00"/>
        <lane id="-E5_2" index="2" speed="36.11" length="500.00" shape="3899.57,-95.20 3400.64,-95.20"/>
        <lane id="-E5_3" index="3" disallow="all" speed="36.11" length="500.00" shape="3899.57,-98.40 3400.64,-98.40"/>
    </edge>
    <edge id="-E6" from="J7" to="J6" priority="-1">
        <lane id="-E6_0" index="0" speed="36.11" length="1503.33" shape="5398.42,11.12 3899.68,-88.80"/>
        <lane id="-E6_1" index="1" speed="36.11" length="1503.33" shape="5398.63,7.93 3899.89,-91.99"/>
        <lane id="-E6_2" index="2" speed="36.11" length="1503.33" shape="5398.84,4.73 3900.11,-95.18"/>
        <lane id="-E6_3" index="3" disallow="all" speed="36.11" length="1503.33" shape="5399.06,1.54 3900.32,-98.38"/>
    </edge>
    <edge id="-E7" from="J8" to="J7" priority="-1">
        <lane id="-E7_0" index="0" speed="36.11" length="509.90" shape="5897.46,110.91 5398.63,11.15"/>
        <lane id="-E7_1" index="1" speed="36.11" length="509.90" shape="5898.08,107.77 5399.25,8.01"/>
        <lane id="-E7_2" index="2" speed="36.11" length="509.90" shape="5898.71,104.64 5399.88,4.87"/>
        <lane id="-E7_3" index="3" disallow="all" speed="36.11" length="509.90" shape="5899.34,101.50 5400.51,1.73"/>
    </edge>
    <edge id="-E8" from="J9" to="J8" priority="-1">
        <lane id="-E8_0" index="0" speed="36.11" length="707.11" shape="6596.88,210.87 5898.77,111.14"/>
        <lane id="-E8_1" index="1" speed="36.11" length="707.11" shape="6597.33,207.70 5899.22,107.97"/>
        <lane id="-E8_2" index="2" speed="36.11" length="707.11" shape="6597.78,204.53 5899.67,104.80"/>
        <lane id="-E8_3" index="3" disallow="all" speed="36.11" length="707.11" shape="6598.24,201.36 5900.13,101.63"/>
    </edge>
    <edge id="-E9" from="J10" to="J9" priority="-1">
        <lane id="-E9_0" index="0" speed="36.11" length="1004.99" shape="7600.60,111.20 6602.66,210.99"/>
        <lane id="-E9_1" index="1" speed="36.11" length="1004.99" shape="7600.29,108.01 6602.34,207.81"/>
        <lane id="-E9_2" index="2" speed="36.11" length="1004.99" shape="7599.97,104.83 6602.02,204.62"/>
        <lane id="-E9_3" index="3" disallow="all" speed="36.11" length="1004.99" shape="7599.65,101.64 6601.71,201.44"/>
    </edge>
    <edge id="E0" from="J0" to="J1" priority="-1">
        <lane id="E0_0" index="0" speed="36.11" length="100.00" shape="0.00,-11.20 100.00,-11.20"/>
        <lane id="E0_1" index="1" speed="36.11" length="100.00" shape="0.00,-8.00 100.00,-8.00"/>
        <lane id="E0_2" index="2" speed="36.11" length="100.00" shape="0.00,-4.80 100.00,-4.80"/>
        <lane id="E0_3" index="3" disallow="all" speed="36.11" length="100.00" shape="0.00,-1.60 100.00,-1.60"/>
    </edge>
    <edge id="E1" from="J1" to="J2" priority="-1">
        <lane id="E1_0" index="0" speed="36.11" length="900.00" shape="100.00,-11.20 999.20,-11.20"/>
        <lane id="E1_1" index="1" speed="36.11" length="900.00" shape="100.00,-8.00 999.20,-8.00"/>
        <lane id="E1_2" index="2" speed="36.11" length="900.00" shape="100.00,-4.80 999.20,-4.80"/>
        <lane id="E1_3" index="3" disallow="all" speed="36.11" length="900.00" shape="100.00,-1.60 999.20,-1.60"/>
    </edge>
    <edge id="E10" from="J10" to="J11" priority="-1">
        <lane id="E10_0" index="0" speed="36.11" length="1118.03" shape="7598.50,88.89 8696.86,-110.81"/>
        <lane id="E10_1" index="1" speed="36.11" length="1118.03" shape="7599.07,92.04 8697.43,-107.66"/>
        <lane id="E10_2" index="2" speed="36.11" length="1118.03" shape="7599.65,95.19 8698.01,-104.52"/>
        <lane id="E10_3" index="3" disallow="all" speed="36.11" length="1118.03" shape="7600.22,98.33 8698.58,-101.37"/>
    </edge>
    <edge id="E11" from="J11" to="J12" priority="-1">
        <lane id="E11_0" index="0" speed="36.11" length="1400.00" shape="8701.15,-111.20 10099.42,-111.20"/>
        <lane id="E11_1" index="1" speed="36.11" length="1400.00" shape="8701.15,-108.00 10099.42,-108.00"/>
        <lane id="E11_2" index="2" speed="36.11" length="1400.00" shape="8701.15,-104.80 10099.42,-104.80"/>
        <lane id="E11_3" index="3" disallow="all" speed="36.11" length="1400.00" shape="8701.15,-101.60 10099.42,-101.60"/>
    </edge>
    <edge id="E12" from="J12" to="J13" priority="-1">
        <lane id="E12_0" index="0" speed="36.11" length="1104.54" shape="10101.59,-111.10 11200.44,-11.21"/>
        <lane id="E12_1" index="1" speed="36.11" length="1104.54" shape="10101.30,-107.91 11200.15,-8.02"/>
        <lane id="E12_2" index="2" speed="36.11" length="1104.54" shape="10101.01,-104.73 11199.86,-4.83"/>
        <lane id="E12_3" index="3" disallow="all" speed="36.11" length="1104.54" shape="10100.72,-101.54 11199.57,-1.65"/>
    </edge>
    <edge id="E13" from="J13" to="J14" priority="-1">
        <lane id="E13_0" index="0" speed="36.11" length="800.00" shape="11200.58,-11.20 11999.64,-11.20"/>
        <lane id="E13_1" index="1" speed="36.11" length="800.00" shape="11200.58,-8.00 11999.64,-8.00"/>
        <lane id="E13_2" index="2" speed="36.11" length="800.00" shape="11200.58,-4.80 11999.64,-4.80"/>
        <lane id="E13_3" index="3" disallow="all" speed="36.11" length="800.00" shape="11200.58,-1.60 11999.64,-1.60"/>
    </edge>
    <edge id="E14" from="J14" to="J15" priority="-1">
        <lane id="E14_0" index="0" speed="36.11" length="1802.78" shape="11999.73,-11.20 13798.79,-111.15"/>
        <lane id="E14_1" index="1" speed="36.11" length="1802.78" shape="11999.91,-8.01 13798.96,-107.95"/>
        <lane id="E14_2" index="2" speed="36.11" length="1802.78" shape="12000.09,-4.81 13799.14,-104.76"/>
        <lane id="E14_3" index="3" disallow="all" speed="36.11" length="1802.78" shape="12000.27,-1.62 13799.32,-101.56"/>
    </edge>
    <edge id="E15" from="J15" to="J16" priority="-1">
        <lane id="E15_0" index="0" speed="36.11" length="2701.85" shape="13801.01,-111.17 16500.15,-11.20"/>
        <lane id="E15_1" index="1" speed="36.11" length="2701.85" shape="13800.89,-107.97 16500.03,-8.00"/>
        <lane id="E15_2" index="2" speed="36.11" length="2701.85" shape="13800.77,-104.77 16499.92,-4.81"/>
        <lane id="E15_3" index="3" disallow="all" speed="36.11" length="2701.85" shape="13800.65,-101.58 16499.80,-1.61"/>
    </edge>
    <edge id="E16" from="J16" to="J17" priority="-1">
        <lane id="E16_0" index="0" speed="36.11" length="2000.00" shape="16500.26,-11.20 18499.51,-11.20"/>
        <lane id="E16_1" index="1" speed="36.11" length="2000.00" shape="16500.26,-8.00 18499.51,-8.00"/>
        <lane id="E16_2" index="2" speed="36.11" length="2000.00" shape="16500.26,-4.80 18499.51,-4.80"/>
        <lane id="E16_3" index="3" disallow="all" speed="36.11" length="2000.00" shape="16500.26,-1.60 18499.51,-1.60"/>
    </edge>
    <edge id="E17" from="J17" to="J18" priority="-1">
        <lane id="E17_0" index="0" speed="36.11" length="1303.84" shape="18501.35,-11.13 19800.20,88.78"/>
        <lane id="E17_1" index="1" speed="36.11" length="1303.84" shape="18501.10,-7.94 19799.96,91.97"/>
        <lane id="E17_2" index="2" speed="36.11" length="1303.84" shape="18500.86,-4.75 19799.71,95.16"/>
        <lane id="E17_3" index="3" disallow="all" speed="36.11" length="1303.84" shape="18500.61,-1.56 19799.46,98.35"/>
    </edge>
    <edge id="E18" from="J18" to="J19" priority="-1">
        <lane id="E18_0" index="0" speed="36.11" length="1118.03" shape="19802.65,89.10 20900.50,288.71"/>
        <lane id="E18_1" index="1" speed="36.11" length="1118.03" shape="19802.08,92.25 20899.92,291.85"/>
        <lane id="E18_2" index="2" speed="36.11" length="1118.03" shape="19801.51,95.40 20899.35,295.00"/>
        <lane id="E18_3" index="3" disallow="all" speed="36.11" length="1118.03" shape="19800.94,98.54 20898.78,298.15"/>
    </edge>
    <edge id="E19" from="J19" to="J20" priority="-1">
        <lane id="E19_0" index="0" speed="36.11" length="984.89" shape="20905.95,290.39 21803.85,689.45"/>
        <lane id="E19_1" index="1" speed="36.11" length="984.89" shape="20904.65,293.31 21802.55,692.38"/>
        <lane id="E19_2" index="2" speed="36.11" length="984.89" shape="20903.35,296.24 21801.25,695.30"/>
        <lane id="E19_3" index="3" disallow="all" speed="36.11" length="984.89" shape="20902.05,299.16 21799.95,698.23"/>
    </edge>
    <edge id="E2" from="J2" to="J3" priority="-1">
        <lane id="E2_0" index="0" speed="36.11" length="806.23" shape="1002.18,-11.01 1799.54,88.66"/>
        <lane id="E2_1" index="1" speed="36.11" length="806.23" shape="1001.78,-7.84 1799.14,91.83"/>
        <lane id="E2_2" index="2" speed="36.11" length="806.23" shape="1001.39,-4.66 1798.74,95.01"/>
        <lane id="E2_3" index="3" disallow="all" speed="36.11" length="806.23" shape="1000.99,-1.49 1798.35,98.18"/>
    </edge>
    <edge id="E20" from="J20" to="J21" priority="-1">
        <lane id="E20_0" index="0" speed="36.11" length="1360.15" shape="21804.03,689.52 23101.88,1088.86"/>
        <lane id="E20_1" index="1" speed="36.11" length="1360.15" shape="21803.09,692.58 23100.94,1091.92"/>
        <lane id="E20_2" index="2" speed="36.11" length="1360.15" shape="21802.14,695.64 23100.00,1094.98"/>
        <lane id="E20_3" index="3" disallow="all" speed="36.11" length="1360.15" shape="21801.20,698.70 23099.06,1098.04"/>
    </edge>
    <edge id="E21" from="J21" to="J22" priority="-1">
        <lane id="E21_0" index="0" speed="36.11" length="1389.24" shape="23106.92,1091.07 24305.29,1790.12"/>
        <lane id="E21_1" index="1" speed="36.11" length="1389.24" shape="23105.31,1093.83 24303.67,1792.88"/>
        <lane id="E21_2" index="2" speed="36.11" length="1389.24" shape="23103.69,1096.60 24302.06,1795.65"/>
        <lane id="E21_3" index="3" disallow="all" speed="36.11" length="1389.24" shape="23102.08,1099.36 24300.45,1798.41"/>
    </edge>
    <edge id="E22" from="J22" to="J23" priority="-1">
        <lane id="E22_0" index="0" speed="36.11" length="1788.85" shape="24305.38,1790.17 25904.73,2589.84"/>
        <lane id="E22_1" index="1" speed="36.11" length="1788.85" shape="24303.95,1793.03 25903.30,2592.71"/>
        <lane id="E22_2" index="2" speed="36.11" length="1788.85" shape="24302.52,1795.89 25901.87,2595.57"/>
        <lane id="E22_3" index="3" disallow="all" speed="36.11" length="1788.85" shape="24301.08,1798.75 25900.44,2598.43"/>
    </edge>
    <edge id="E23" from="J23" to="J24" priority="-1">
        <lane id="E23_0" index="0" speed="36.11" length="1969.77" shape="25904.83,2589.89 27702.64,3388.92"/>
        <lane id="E23_1" index="1" speed="36.11" length="1969.77" shape="25903.53,2592.82 27701.34,3391.84"/>
        <lane id="E23_2" index="2" speed="36.11" length="1969.77" shape="25902.23,2595.74 27700.04,3394.76"/>
        <lane id="E23_3" index="3" disallow="all" speed="36.11" length="1969.77" shape="25900.93,2598.66 27698.74,3397.69"/>
    </edge>
    <edge id="E24" from="J24" to="J25" priority="-1">
        <lane id="E24_0" index="0" speed="36.11" length="1627.88" shape="27709.11,3393.16 28907.15,4491.36"/>
        <lane id="E24_1" index="1" speed="36.11" length="1627.88" shape="27706.95,3395.52 28904.99,4493.72"/>
        <lane id="E24_2" index="2" speed="36.11" length="1627.88" shape="27704.78,3397.87 28902.82,4496.08"/>
        <lane id="E24_3" index="3" disallow="all" speed="36.11" length="1627.88" shape="27702.62,3400.23 28900.66,4498.43"/>
    </edge>
    <edge id="E25" from="J25" to="J26" priority="-1">
        <lane id="E25_0" index="0" speed="36.11" length="2140.09" shape="28907.26,4491.45 30605.30,5789.95"/>
        <lane id="E25_1" index="1" speed="36.11" length="2140.09" shape="28905.31,4493.99 30603.35,5792.49"/>
        <lane id="E25_2" index="2" speed="36.11" length="2140.09" shape="28903.37,4496.53 30601.41,5795.04"/>
        <lane id="E25_3" index="3" disallow="all" speed="36.11" length="2140.09" shape="28901.43,4499.08 30599.47,5797.58"/>
    </edge>
    <edge id="E26" from="J26" to="J27" priority="-1">
        <lane id="E26_0" index="0" speed="36.11" length="854.40" shape="30605.71,5790.18 31402.36,6088.92"/>
        <lane id="E26_1" index="1" speed="36.11" length="854.40" shape="30604.58,5793.18 31401.23,6091.92"/>
        <lane id="E26_2" index="2" speed="36.11" length="854.40" shape="30603.46,5796.17 31400.11,6094.91"/>
        <lane id="E26_3" index="3" disallow="all" speed="36.11" length="854.40" shape="30602.34,5799.17 31398.99,6097.91"/>
    </edge>
    <edge id="E27" from="J27" to="J28" priority="-1">
        <lane id="E27_0" index="0" speed="36.11" length="860.23" shape="31407.88,6091.86 32104.27,6589.29"/>
        <lane id="E27_1" index="1" speed="36.11" length="860.23" shape="31406.02,6094.47 32102.41,6591.89"/>
        <lane id="E27_2" index="2" speed="36.11" length="860.23" shape="31404.16,6097.07 32100.55,6594.50"/>
        <lane id="E27_3" index="3" disallow="all" speed="36.11" length="860.23" shape="31402.30,6099.68 32098.69,6597.10"/>
    </edge>
    <edge id="E28" from="J28" to="J29" priority="-1">
        <lane id="E28_0" index="0" speed="36.11" length="1529.71" shape="32104.89,6589.56 33600.95,6888.77"/>
        <lane id="E28_1" index="1" speed="36.11" length="1529.71" shape="32104.26,6592.69 33600.33,6891.91"/>
        <lane id="E28_2" index="2" speed="36.11" length="1529.71" shape="32103.64,6595.83 33599.70,6895.04"/>
        <lane id="E28_3" index="3" disallow="all" speed="36.11" length="1529.71" shape="32103.01,6598.97 33599.07,6898.18"/>
    </edge>
    <edge id="E29" from="J29" to="J30" priority="-1">
        <lane id="E29_0" index="0" speed="36.11" length="500.00" shape="33601.27,6888.80 34100.00,6888.80"/>
        <lane id="E29_1" index="1" speed="36.11" length="500.00" shape="33601.27,6892.00 34100.00,6892.00"/>
        <lane id="E29_2" index="2" speed="36.11" length="500.00" shape="33601.27,6895.20 34100.00,6895.20"/>
        <lane id="E29_3" index="3" disallow="all" speed="36.11" length="500.00" shape="33601.27,6898.40 34100.00,6898.40"/>
    </edge>
    <edge id="E3" from="J3" to="J4" priority="-1">
        <lane id="E3_0" index="0" speed="36.11" length="608.28" shape="1800.00,88.65 2397.75,-10.98"/>
        <lane id="E3_1" index="1" speed="36.11" length="608.28" shape="1800.53,91.80 2398.27,-7.82"/>
        <lane id="E3_2" index="2" speed="36.11" length="608.28" shape="1801.05,94.96 2398.80,-4.67"/>
        <lane id="E3_3" index="3" disallow="all" speed="36.11" length="608.28" shape="1801.58,98.12 2399.32,-1.51"/>
    </edge>
    <edge id="E30" from="J30" to="J31" priority="-1">
        <lane id="E30_0" index="0" speed="36.11" length="100.00" shape="34100.00,6888.80 34200.00,6888.80"/>
        <lane id="E30_1" index="1" speed="36.11" length="100.00" shape="34100.00,6892.00 34200.00,6892.00"/>
        <lane id="E30_2" index="2" speed="36.11" length="100.00" shape="34100.00,6895.20 34200.00,6895.20"/>