<?xml version="1.0" encoding="UTF-8"?>

<routes xmlns:xsi="http://www.w3.org/2001/XMLSchema-instance" xsi:noNamespaceSchemaLocation="http://sumo.dlr.de/xsd/routes_file.xsd">

    <!-- Define Vehicle Types -->
    <vType id="vNormal" vClass="passenger" color="yellow" length="5.0" minGap="2.5" accel="2.6" decel="4.5" maxSpeed="55.55" speedFactor="0.9" speedDev="0.2" sigma="0.5" laneChangeModel="SL2015" minGapLat="0.8" lcSpeedGain="100.0" lcKeepRight="1.0" lcPushy="0.1" lcPushyGap="0.8" lcAssertive="1" lcImpatience="0.5" lcTimeToImpatience="60" />
    <vType id="vFast" vClass="passenger" color="red" length="5.0" minGap="2.5" accel="3.5" decel="5.0" maxSpeed="66.66" speedFactor="1.1" speedDev="0.15" sigma="0.5" laneChangeModel="SL2015" minGapLat="0.8" lcSpeedGain="100.00" lcKeepRight="1.0" lcPushy="0.1" lcPushyGap="0.8" lcAssertive="1" lcImpatience="0.5" lcTimeToImpatience="60" />
    <vType id="vBus" vClass="coach" color="blue" length="12.0" minGap="5.0" accel="1.5" decel="1.2" maxSpeed="40" speedFactor="0.7" speedDev="0.1" sigma="0.5" laneChangeModel="SL2015" minGapLat="0.8" lcSpeedGain="1.0" lcKeepRight="100.0" lcPushy="0.1" lcPushyGap="0.8" lcAssertive="1" lcImpatience="0" lcTimeToImpatience="120" />
    <vType id="vTruck" vClass="trailer" color="green"  length="10.0" minGap="5.0" accel="1.0" decel="0.9" maxSpeed="30" speedFactor="0.6" speedDev="0.1" sigma="0.5" laneChangeModel="SL2015" minGapLat="0.8" lcSpeedGain="1.0" lcKeepRight="100.0" lcPushy="0.1" lcPushyGap="0.8" lcAssertive="1" lcImpatience="0" lcTimeToImpatience="120" />

    <!-- Define Routes -->
    <route id="rForward" edges="E0 E1 E2 E3 E4 E5 E6 E7 E8 E9 E10 E11 E12 E13" />
    <route id="rBackward" edges="-E13 -E12 -E11 -E10 -E9 -E8 -E7 -E6 -E5 -E4 -E3 -E2 -E1 -E0" />
    
    <!-- Poisson generated vehicles such that vehicle generation rate is divided into four vehicle types: %40 Normal, %40 Fast, %10 Bus, %10 Truck -->

    <!-- Day #1 00:00-01:00  -->
    <flow id="T0_NormalForward" type="vNormal" route="rForward" begin="0" end="3599" departLane="best" departPos="random_free" departSpeed="max" probability="0.0996" />
    <flow id="T0_FastForward" type="vFast" route="rForward" begin="0" end="3599" departLane="best" departPos="random_free" departSpeed="max" probability="0.0747" />
    <flow id="T0_BusForward" type="vBus" route="rForward" begin="0" end="3599" departLane="first" departPos="random_free" departSpeed="max" probability="0.0249" />
    <flow id="T0_TruckForward" type="vTruck" route="rForward" begin="0" end="3599" departLane="first" departPos="random_free" departSpeed="max" probability="0.0498" />
    <flow id="T0_NormalBackward" type="vNormal" route="rBackward" begin="0" end="3599" departLane="best" departPos="random_free" departSpeed="max" probability="0.0996" />
    <flow id="T0_FastBackward" type="vFast" route="rBackward" begin="0" end="3599" departLane="best" departPos="random_free" departSpeed="max" probability="0.0747" />
    <flow id="T0_BusBackward" type="vBus" route="rBackward" begin="0" end="3599" departLane="first" departPos="random_free" departSpeed="max" probability="0.0249" />
    <flow id="T0_TruckBackward" type="vTruck" route="rBackward" begin="0" end="3599" departLane="first" departPos="random_free" departSpeed="max" probability="0.0498" />

    <!-- Day #1 01:00-02:00  -->
    <flow id="T1_NormalForward" type="vNormal" route="rForward" begin="3600" end="7199" departLane="best" departPos="random_free" departSpeed="max" probability="0.0672" />
    <flow id="T1_FastForward" type="vFast" route="rForward" begin="3600" end="7199" departLane="best" departPos="random_free" departSpeed="max" probability="0.0504" />
    <flow id="T1_BusForward" type="vBus" route="rForward" begin="3600" end="7199" departLane="first" departPos="random_free" departSpeed="max" probability="0.0168" />
    <flow id="T1_TruckForward" type="vTruck" route="rForward" begin="3600" end="7199" departLane="first" departPos="random_free" departSpeed="max" probability="0.0336" />
    <flow id="T1_NormalBackward" type="vNormal" route="rBackward" begin="3600" end="7199" departLane="best" departPos="random_free" departSpeed="max" probability="0.0672" />
    <flow id="T1_FastBackward" type="vFast" route="rBackward" begin="3600" end="7199" departLane="best" departPos="random_free" departSpeed="max" probability="0.0504" />
    <flow id="T1_BusBackward" type="vBus" route="rBackward" begin="3600" end="7199" departLane="first" departPos="random_free" departSpeed="max" probability="0.0168" />
    <flow id="T1_TruckBackward" type="vTruck" route="rBackward" begin="3600" end="7199" departLane="first" departPos="random_free" departSpeed="max" probability="0.0336" />

    <!-- Day #1 02:00-03:00 -->
    <flow id="T2_NormalForward" type="vNormal" route="rForward" begin="7200" end="10799" departLane="best" departPos="random_free" departSpeed="max" probability="0.0264" />
    <flow id="T2_FastForward" type="vFast" route="rForward" begin="7200" end="10799" departLane="best" departPos="random_free" departSpeed="max" probability="0.0198" />
    <flow id="T2_BusForward" type="vBus" route="rForward" begin="7200" end="10799" departLane="first" departPos="random_free" departSpeed="max" probability="0.0066" />
    <flow id="T2_TruckForward" type="vTruck" route="rForward" begin="7200" end="10799" departLane="first" departPos="random_free" departSpeed="max" probability="0.0132" />
    <flow id="T2_NormalBackward" type="vNormal" route="rBackward" begin="7200" end="10799" departLane="best" departPos="random_free" departSpeed="max" probability="0.0264" />
    <flow id="T2_FastBackward" type="vFast" route="rBackward" begin="7200" end="10799" departLane="best" departPos="random_free" departSpeed="max" probability="0.0198" />
    <flow id="T2_BusBackward" type="vBus" route="rBackward" begin="7200" end="10799" departLane="first" departPos="random_free" departSpeed="max" probability="0.0066" />
    <flow id="T2_TruckBackward" type="vTruck" route="rBackward" begin="7200" end="10799" departLane="first" departPos="random_free" departSpeed="max" probability="0.0132" />

    <!-- Day #1 03:00-04:00 -->
    <flow id="T3_NormalForward" type="vNormal" route="rForward" begin="10800" end="14399" departLane="best" departPos="random_free" departSpeed="max" probability="0.0336" />
    <flow id="T3_FastForward" type="vFast" route="rForward" begin="10800" end="14399" departLane="best" departPos="random_free" departSpeed="max" probability="0.0252" />
    <flow id="T3_BusForward" type="vBus" route="rForward" begin="10800" end="14399" departLane="first" departPos="random_free" departSpeed="max" probability="0.0084" />
    <flow id="T3_TruckForward" type="vTruck" route="rForward" begin="10800" end="14399" departLane="first" departPos="random_free" departSpeed="max" probability="0.0168" />
    <flow id="T3_NormalBackward" type="vNormal" route="rBackward" begin="10800" end="14399" departLane="best" departPos="random_free" departSpeed="max" probability="0.0336" />
    <flow id="T3_FastBackward" type="vFast" route="rBackward" begin="10800" end="14399" departLane="best" departPos="random_free" departSpeed="max" probability="0.0252" />
    <flow id="T3_BusBackward" type="vBus" route="rBackward" begin="10800" end="14399" departLane="first" departPos="random_free" departSpeed="max" probability="0.0084" />
    <flow id="T3_TruckBackward" type="vTruck" route="rBackward" begin="10800" end="14399" departLane="first" departPos="random_free" departSpeed="max" probability="0.0168" />

    <!-- Day #1 04:00-05:00 -->
    <flow id="T4_NormalForward" type="vNormal" route="rForward" begin="14400" end="17999" departLane="best" departPos="random_free" departSpeed="max" probability="0.0396" />
    <flow id="T4_FastForward" type="vFast" route="rForward" begin="14400" end="17999" departLane="best" departPos="random_free" departSpeed="max" probability="0.0297" />
    <flow id="T4_BusForward" type="vBus" route="rForward" begin="14400" end="17999" departLane="first" departPos="random_free" departSpeed="max" probability="0.0099" />
    <flow id="T4_TruckForward" type="vTruck" route="rForward" begin="14400" end="17999" departLane="first" departPos="random_free" departSpeed="max" probability="0.0198" />
    <flow id="T4_NormalBackward" type="vNormal" route="rBackward" begin="14400" end="17999" departLane="best" departPos="random_free" departSpeed="max" probability="0.0396" />
    <flow id="T4_FastBackward" type="vFast" route="rBackward" begin="14400" end="17999" departLane="best" departPos="random_free" departSpeed="max" probability="0.0297" />
    <flow id="T4_BusBackward" type="vBus" route="rBackward" begin="14400" end="17999" departLane="first" departPos="random_free" departSpeed="max" probability="0.0099" />
    <flow id="T4_TruckBackward" type="vTruck" route="rBackward" begin="14400" end="17999" departLane="first" departPos="random_free" departSpeed="max" probability="0.0198" />

    <!-- Day #1 05:00-06:00 -->
    <flow id="T5_NormalForward" type="vNormal" route="rForward" begin="18000" end="21599" departLane="best" departPos="random_free" departSpeed="max" probability="0.0936" />
    <flow id="T5_FastForward" type="vFast" route="rForward" begin="18000" end="21599" departLane="best" departPos="random_free" departSpeed="max" probability="0.0702" />
    <flow id="T5_BusForward" type="vBus" route="rForward" begin="18000" end="21599" departLane="first" departPos="random_free" departSpeed="max" probability="0.0234" />
    <flow id="T5_TruckForward" type="vTruck" route="rForward" begin="18000" end="21599" departLane="first" departPos="random_free" departSpeed="max" probability="0.0468" />
    <flow id="T5_NormalBackward" type="vNormal" route="rBackward" begin="18000" end="21599" departLane="best" departPos="random_free" departSpeed="max" probability="0.0936" />
    <flow id="T5_FastBackward" type="vFast" route="rBackward" begin="18000" end="21599" departLane="best" departPos="random_free" departSpeed="max" probability="0.0702" />
    <flow id="T5_BusBackward" type="vBus" route="rBackward" begin="18000" end="21599" departLane="first" departPos="random_free" departSpeed="max" probability="0.0234" />
    <flow id="T5_TruckBackward" type="vTruck" route="rBackward" begin="18000" end="21599" departLane="first" departPos="random_free" departSpeed="max" probability="0.0468" />

    <!-- Day #1 06:00-07:00 -->
    <flow id="T6_NormalForward" type="vNormal" route="rForward" begin="21600" end="25199" departLane="best" departPos="random_free" departSpeed="max" probability="0.2004" />
    <flow id="T6_FastForward" type="vFast" route="rForward" begin="21600" end="25199" departLane="best" departPos="random_free" departSpeed="max" probability="0.1503" />
    <flow id="T6_BusForward" type="vBus" route="rForward" begin="21600" end="25199" departLane="first" departPos="random_free" departSpeed="max" probability="0.0501" />
    <flow id="T6_TruckForward" type="vTruck" route="rForward" begin="21600" end="25199" departLane="first" departPos="random_free" departSpeed="max" probability="0.1002" />
    <flow id="T6_NormalBackward" type="vNormal" route="rBackward" begin="21600" end="25199" departLane="best" departPos="random_free" departSpeed="max" probability="0.2004" />
    <flow id="T6_FastBackward" type="vFast" route="rBackward" begin="21600" end="25199" departLane="best" departPos="random_free" departSpeed="max" probability="0.1503" />
    <flow id="T6_BusBackward" type="vBus" route="rBackward" begin="21600" end="25199" departLane="first" departPos="random_free" departSpeed="max" probability="0.0501" />
    <flow id="T6_TruckBackward" type="vTruck" route="rBackward" begin="21600" end="25199" departLane="first" departPos="random_free" departSpeed="max" probability="0.1002" />

    <!-- Day #1 07:00-08:00 -->
    <flow id="T7_NormalForward" type="vNormal" route="rForward" begin="25200" end="28799" departLane="best" departPos="random_free" departSpeed="max" probability="0.4332" />
    <flow id="T7_FastForward" type="vFast" route="rForward" begin="25200" end="28799" departLane="best" departPos="random_free" departSpeed="max" probability="0.3249" />
    <flow id="T7_BusForward" type="vBus" route="rForward" begin="25200" end="28799" departLane="first" departPos="random_free" departSpeed="max" probability="0.1083" />
    <flow id="T7_TruckForward" type="vTruck" route="rForward" begin="25200" end="28799" departLane="first" departPos="random_free" departSpeed="max" probability="0.2166" />
    <flow id="T7_NormalBackward" type="vNormal" route="rBackward" begin="25200" end="28799" departLane="best" departPos="random_free" departSpeed="max" probability="0.4332" />
    <flow id="T7_FastBackward" type="vFast" route="rBackward" begin="25200" end="28799" departLane="best" departPos="random_free" departSpeed="max" probability="0.3249" />
    <flow id="T7_BusBackward" type="vBus" route="rBackward" begin="25200" end="28799" departLane="first" departPos="random_free" departSpeed="max" probability="0.1083" />
    <flow id="T7_TruckBackward" type="vTruck" route="rBackward" begin="25200" end="28799" departLane="first" departPos="random_free" departSpeed="max" probability="0.2166" />

    <!-- Day #1 08:00-09:00 -->
    <flow id="T8_NormalForward" type="vNormal" route="rForward" begin="28800" end="32399" departLane="best" departPos="random_free" departSpeed="max" probability="0.6000" />
    <flow id="T8_FastForward" type="vFast" route="rForward" begin="28800" end="32399" departLane="best" departPos="random_free" departSpeed="max" probability="0.4500" />
    <flow id="T8_BusForward" type="vBus" route="rForward" begin="28800" end="32399" departLane="first" departPos="random_free" departSpeed="max" probability="0.1500" />
    <flow id="T8_TruckForward" type="vTruck" route="rForward" begin="28800" end="32399" departLane="first" departPos="random_free" departSpeed="max" probability="0.3000" />
    <flow id="T8_NormalBackward" type="vNormal" route="rBackward" begin="28800" end="32399" departLane="best" departPos="random_free" departSpeed="max" probability="0.6000" />
    <flow id="T8_FastBackward" type="vFast" route="rBackward" begin="28800" end="32399" departLane="best" departPos="random_free" departSpeed="max" probability="0.4500" />
    <flow id="T8_BusBackward" type="vBus" route="rBackward" begin="28800" end="32399" departLane="first" departPos="random_free" departSpeed="max" probability="0.1500" />
    <flow id="T8_TruckBackward" type="vTruck" route="rBackward" begin="28800" end="32399" departLane="first" departPos="random_free" departSpeed="max" probability="0.3000" />

    <!-- Day #1 09:00-10:00 -->
    <flow id="T9_NormalForward" type="vNormal" route="rForward" begin="32400" end="35999" departLane="best" departPos="random_free" departSpeed="max" probability="0.5664" />
    <flow id="T9_FastForward" type="vFast" route="rForward" begin="32400" end="35999" departLane="best" departPos="random_free" departSpeed="max" probability="0.4248" />
    <flow id="T9_BusForward" type="vBus" route="rForward" begin="32400" end="35999" departLane="first" departPos="random_free" departSpeed="max" probability="0.1416" />
    <flow id="T9_TruckForward" type="vTruck" route="rForward" begin="32400" end="35999" departLane="first" departPos="random_free" departSpeed="max" probability="0.2832" />
    <flow id="T9_NormalBackward" type="vNormal" route="rBackward" begin="32400" end="35999" departLane="best" departPos="random_free" departSpeed="max" probability="0.5664" />
    <flow id="T9_FastBackward" type="vFast" route="rBackward" begin="32400" end="35999" departLane="best" departPos="random_free" departSpeed="max" probability="0.4248" />
    <flow id="T9_BusBackward" type="vBus" route="rBackward" begin="32400" end="35999" departLane="first" departPos="random_free" departSpeed="max" probability="0.1416" />
    <flow id="T9_TruckBackward" type="vTruck" route="rBackward" begin="32400" end="35999" departLane="first" departPos="random_free" departSpeed="max" probability="0.2832" />

    <!-- Day #1 10:00-11:00 -->
    <flow id="T10_NormalForward" type="vNormal" route="rForward" begin="36000" end="39599" departLane="best" departPos="random_free" departSpeed="max" probability="0.3000" />
    <flow id="T10_FastForward" type="vFast" route="rForward" begin="36000" end="39599" departLane="best" departPos="random_free" departSpeed="max" probability="0.2250" />
    <flow id="T10_BusForward" type="vBus" route="rForward" begin="36000" end="39599" departLane="first" departPos="random_free" departSpeed="max" probability="0.0750" />
    <flow id="T10_TruckForward" type="vTruck" route="rForward" begin="36000" end="39599" departLane="first" departPos="random_free" departSpeed="max" probability="0.1500" />
    <flow id="T10_NormalBackward" type="vNormal" route="rBackward" begin="36000" end="39599" departLane="best" departPos="random_free" departSpeed="max" probability="0.3000" />
    <flow id="T10_FastBackward" type="vFast" route="rBackward" begin="36000" end="39599" departLane="best" departPos="random_free" departSpeed="max" probability="0.2250" />
    <flow id="T10_BusBackward" type="vBus" route="rBackward" begin="36000" end="39599" departLane="first" departPos="random_free" departSpeed="max" probability="0.0750" />
    <flow id="T10_TruckBackward" type="vTruck" route="rBackward" begin="36000" end="39599" departLane="first" departPos="random_free" departSpeed="max" probability="0.1500" />

    <!-- Day #1 11:00-12:00 -->
    <flow id="T11_NormalForward" type="vNormal" route="rForward" begin="39600" end="43199" departLane="best" departPos="random_free" departSpeed="max" probability="0.1596" />
    <flow id="T11_FastForward" type="vFast" route="rForward" begin="39600" end="43199" departLane="best" departPos="random_free" departSpeed="max" probability="0.1197" />
    <flow id="T11_BusForward" type="vBus" route="rForward" begin="39600" end="43199" departLane="first" departPos="random_free" departSpeed="max" probability="0.0399" />
    <flow id="T11_TruckForward" type="vTruck" route="rForward" begin="39600" end="43199" departLane="first" departPos="random_free" departSpeed="max" probability="0.0798" />
    <flow id="T11_NormalBackward" type="vNormal" route="rBackward" begin="39600" end="43199" departLane="best" departPos="random_free" departSpeed="max" probability="0.1596" />
    <flow id="T11_FastBackward" type="vFast" route="rBackward" begin="39600" end="43199" departLane="best" departPos="random_free" departSpeed="max" probability="0.1197" />
    <flow id="T11_BusBackward" type="vBus" route="rBackward" begin="39600" end="43199" departLane="first" departPos="random_free" departSpeed="max" probability="0.0399" />
    <flow id="T11_TruckBackward" type="vTruck" route="rBackward" begin="39600" end="43199" departLane="first" departPos="random_free" departSpeed="max" probability="0.0798" />

    <!-- Day #1 12:00-13:00 -->
    <flow id="T12_NormalForward" type="vNormal" route="rForward" begin="43200" end="46799" departLane="best" departPos="random_free" departSpeed="max" probability="0.2004" />
    <flow id="T12_FastForward" type="vFast" route="rForward" begin="43200" end="46799" departLane="best" departPos="random_free" departSpeed="max" probability="0.1503" />
    <flow id="T12_BusForward" type="vBus" route="rForward" begin="43200" end="46799" departLane="first" departPos="random_free" departSpeed="max" probability="0.0501" />
    <flow id="T12_TruckForward" type="vTruck" route="rForward" begin="43200" end="46799" departLane="first" departPos="random_free" departSpeed="max" probability="0.1002" />
    <flow id="T12_NormalBackward" type="vNormal" route="rBackward" begin="43200" end="46799" departLane="best" departPos="random_free" departSpeed="max" probability="0.2004" />
    <flow id="T12_FastBackward" type="vFast" route="rBackward" begin="43200" end="46799" departLane="best" departPos="random_free" departSpeed="max" probability="0.1503" />
    <flow id="T12_BusBackward" type="vBus" route="rBackward" begin="43200" end="46799" departLane="first" departPos="random_free" departSpeed="max" probability="0.0501" />
    <flow id="T12_TruckBackward" type="vTruck" route="rBackward" begin="43200" end="46799" departLane="first" departPos="random_free" departSpeed="max" probability="0.1002" />

    <!-- Day #1 13:00-14:00 -->
    <flow id="T13_NormalForward" type="vNormal" route="rForward" begin="46800" end="50399" departLane="best" departPos="random_free" departSpeed="max" probability="0.4272" />
    <flow id="T13_FastForward" type="vFast" route="rForward" begin="46800" end="50399" departLane="best" departPos="random_free" departSpeed="max" probability="0.3204" />
    <flow id="T13_BusForward" type="vBus" route="rForward" begin="46800" end="50399" departLane="first" departPos="random_free" departSpeed="max" probability="0.1068" />
    <flow id="T13_TruckForward" type="vTruck" route="rForward" begin="46800" end="50399" departLane="first" departPos="random_free" departSpeed="max" probability="0.2136" />
    <flow id="T13_NormalBackward" type="vNormal" route="rBackward" begin="46800" end="50399" departLane="best" departPos="random_free" departSpeed="max" probability="0.4272" />
    <flow id="T13_FastBackward" type="vFast" route="rBackward" begin="46800" end="50399" departLane="best" departPos="random_free" departSpeed="max" probability="0.3204" />
    <flow id="T13_BusBackward" type="vBus" route="rBackward" begin="46800" end="50399" departLane="first" departPos="random_free" departSpeed="max" probability="0.1068" />
    <flow id="T13_TruckBackward" type="vTruck" route="rBackward" begin="46800" end="50399" departLane="first" departPos="random_free" departSpeed="max" probability="0.2136" />

    <!-- Day #1 14:00-15:00 -->
    <flow id="T14_NormalForward" type="vNormal" route="rForward" begin="50400" end="53999" departLane="best" departPos="random_free" departSpeed="max" probability="0.3468" />
    <flow id="T14_FastForward" type="vFast" route="rForward" begin="50400" end="53999" departLane="best" departPos="random_free" departSpeed="max" probability="0.2601" />
    <flow id="T14_BusForward" type="vBus" route="rForward" begin="50400" end="53999" departLane="first" departPos="random_free" departSpeed="max" probability="0.0867" />
    <flow id="T14_TruckForward" type="vTruck" route="rForward" begin="50400" end="53999" departLane="first" departPos="random_free" departSpeed="max" probability="0.1734" />
    <flow id="T14_NormalBackward" type="vNormal" route="rBackward" begin="50400" end="53999" departLane="best" departPos="random_free" departSpeed="max" probability="0.3468" />
    <flow id="T14_FastBackward" type="vFast" route="rBackward" begin="50400" end="53999" departLane="best" departPos="random_free" departSpeed="max" probability="0.2601" />
    <flow id="T14_BusBackward" type="vBus" route="rBackward" begin="50400" end="53999" departLane="first" departPos="random_free" departSpeed="max" probability="0.0867" />
    <flow id="T14_TruckBackward" type="vTruck" route="rBackward" begin="50400" end="53999" departLane="first" departPos="random_free" departSpeed="max" probability="0.1734" />

    <!-- Day #1 15:00-16:00 -->
    <flow id="T15_NormalForward" type="vNormal" route="rForward" begin="54000" end="57599" departLane="best" departPos="random_free" departSpeed="max" probability="0.2136" />
    <flow id="T15_FastForward" type="vFast" route="rForward" begin="54000" end="57599" departLane="best" departPos="random_free" departSpeed="max" probability="0.1602" />
    <flow id="T15_BusForward" type="vBus" route="rForward" begin="54000" end="57599" departLane="first" departPos="random_free" departSpeed="max" probability="0.0534" />
    <flow id="T15_TruckForward" type="vTruck" route="rForward" begin="54000" end="57599" departLane="first" departPos="random_free" departSpeed="max" probability="0.1068" />
    <flow id="T15_NormalBackward" type="vNormal" route="rBackward" begin="54000" end="57599" departLane="best" departPos="random_free" departSpeed="max" probability="0.2136" />
    <flow id="T15_FastBackward" type="vFast" route="rBackward" begin="54000" end="57599" departLane="best" departPos="random_free" departSpeed="max" probability="0.1602" />
    <flow id="T15_BusBackward" type="vBus" route="rBackward" begin="54000" end="57599" departLane="first" departPos="random_free" departSpeed="max" probability="0.0534" />
    <flow id="T15_TruckBackward" type="vTruck" route="rBackward" begin="54000" end="57599" departLane="first" departPos="random_free" departSpeed="max" probability="0.1068" />

    <!-- Day #1 16:00-17:00 -->
    <flow id="T16_NormalForward" type="vNormal" route="rForward" begin="57600" end="61199" departLane="best" departPos="random_free" departSpeed="max" probability="0.2328" />
    <flow id="T16_FastForward" type="vFast" route="rForward" begin="57600" end="61199" departLane="best" departPos="random_free" departSpeed="max" probability="0.1746" />
    <flow id="T16_BusForward" type="vBus" route="rForward" begin="57600" end="61199" departLane="first" departPos="random_free" departSpeed="max" probability="0.0582" />
    <flow id="T16_TruckForward" type="vTruck" route="rForward" begin="57600" end="61199" departLane="first" departPos="random_free" departSpeed="max" probability="0.1164" />
    <flow id="T16_NormalBackward" type="vNormal" route="rBackward" begin="57600" end="61199" departLane="best" departPos="random_free" departSpeed="max" probability="0.2328" />
    <flow id="T16_FastBackward" type="vFast" route="rBackward" begin="57600" end="61199" departLane="best" departPos="random_free" departSpeed="max" probability="0.1746" />
    <flow id="T16_BusBackward" type="vBus" route="rBackward" begin="57600" end="61199" departLane="first" departPos="random_free" departSpeed="max" probability="0.0582" />
    <flow id="T16_TruckBackward" type="vTruck" route="rBackward" begin="57600" end="61199" departLane="first" departPos="random_free" departSpeed="max" probability="0.1164" />

    <!-- Day #1 17:00-18:00 -->
    <flow id="T17_NormalForward" type="vNormal" route="rForward" begin="61200" end="64799" departLane="best" departPos="random_free" departSpeed="max" probability="0.3864" />
    <flow id="T17_FastForward" type="vFast" route="rForward" begin="61200" end="64799" departLane="best" departPos="random_free" departSpeed="max" probability="0.2898" />
    <flow id="T17_BusForward" type="vBus" route="rForward" begin="61200" end="64799" departLane="first" departPos="random_free" departSpeed="max" probability="0.0966" />
    <flow id="T17_TruckForward" type="vTruck" route="rForward" begin="61200" end="64799" departLane="first" departPos="random_free" departSpeed="max" probability="0.1932" />
    <flow id="T17_NormalBackward" type="vNormal" route="rBackward" begin="61200" end="64799" departLane="best" departPos="random_free" departSpeed="max" probability="0.3864" />
    <flow id="T17_FastBackward" type="vFast" route="rBackward" begin="61200" end="64799" departLane="best" departPos="random_free" departSpeed="max" probability="0.2898" />
    <flow id="T17_BusBackward" type="vBus" route="rBackward" begin="61200" end="64799" departLane="first" departPos="random_free" departSpeed="max" probability="0.0966" />
    <flow id="T17_TruckBackward" type="vTruck" route="rBackward" begin="61200" end="64799" departLane="first" departPos="random_free" departSpeed="max" probability="0.1932" />

    <!-- Day #1 18:00-19:00 -->
    <flow id="T18_NormalForward" type="vNormal" route="rForward" begin="64800" end="68399" departLane="best" departPos="random_free" departSpeed="max" probability="0.5664" />
    <flow id="T18_FastForward" type="vFast" route="rForward" begin="64800" end="68399" departLane="best" departPos="random_free" departSpeed="max" probability="0.4248" />
    <flow id="T18_BusForward" type="vBus" route="rForward" begin="64800" end="68399" departLane="first" departPos="random_free" departSpeed="max" probability="0.1416" />
    <flow id="T18_TruckForward" type="vTruck" route="rForward" begin="64800" end="68399" departLane="first" departPos="random_free" departSpeed="max" probability="0.2832" />
    <flow id="T18_NormalBackward" type="vNormal" route="rBackward" begin="64800" end="68399" departLane="best" departPos="random_free" departSpeed="max" probability="0.5664" />
    <flow id="T18_FastBackward" type="vFast" route="rBackward" begin="64800" end="68399" departLane="best" departPos="random_free" departSpeed="max" probability="0.4248" />
    <flow id="T18_BusBackward" type="vBus" route="rBackward" begin="64800" end="68399" departLane="first" departPos="random_free" departSpeed="max" probability="0.1416" />
    <flow id="T18_TruckBackward" type="vTruck" route="rBackward" begin="64800" end="68399" departLane="first" departPos="random_free" departSpeed="max" probability="0.2832" />

    <!-- Day #1 19:00-20:00 -->
    <flow id="T19_NormalForward" type="vNormal" route="rForward" begin="68400" end="71999" departLane="best" departPos="random_free" departSpeed="max" probability="0.5604" />
    <flow id="T19_FastForward" type="vFast" route="rForward" begin="68400" end="71999" departLane="best" departPos="random_free" departSpeed="max" probability="0.4203" />
    <flow id="T19_BusForward" type="vBus" route="rForward" begin="68400" end="71999" departLane="first" departPos="random_free" departSpeed="max" probability="0.1401" />
    <flow id="T19_TruckForward" type="vTruck" route="rForward" begin="68400" end="71999" departLane="first" departPos="random_free" departSpeed="max" probability="0.2802" />
    <flow id="T19_NormalBackward" type="vNormal" route="rBackward" begin="68400" end="71999" departLane="best" departPos="random_free" departSpeed="max" probability="0.5604" />
    <flow id="T19_FastBackward" type="vFast" route="rBackward" begin="68400" end="71999" departLane="best" departPos="random_free" departSpeed="max" probability="0.4203" />